Circuit: * C:\Users\ohvic\Documents\ITBA\ASSD_2020_G4\TP1\SH\lf398.asc

Direct Newton iteration for .op point succeeded.

Date: Sat May 23 15:14:32 2020
Total elapsed time: 1.732 seconds.

tnom = 27
temp = 27
method = modified trap
totiter = 68457
traniter = 68420
tranpoints = 32926
accept = 32473
rejected = 453
matrix size = 41
fillins = 62
solver = Normal
Matrix Compiler1: 6.21 KB object code size  1.8/1.5/[0.6]
Matrix Compiler2: off  [0.8]/1.6/0.9

