Circuit: * C:\Users\ohvic\Documents\ITBA\ASSD_2020_G4\TP1\SH\sh.asc

Direct Newton iteration failed to find .op point.  (Use ".option noopiter" to skip.)
Starting Gmin stepping
Gmin = 10
Gmin = 1.07374
Gmin = 0.115292
Gmin = 0.0123794
Gmin = 0.00132923
Gmin = 0.000142725
Gmin = 1.5325e-005
Gmin = 1.6455e-006
Gmin = 1.76685e-007
Gmin = 1.89714e-008
Gmin = 2.03704e-009
Gmin = 2.18725e-010
Gmin = 2.34854e-011
Gmin = 2.52173e-012
Gmin = 2.70769e-013
Gmin = 0
Gmin stepping succeeded in finding the operating point.


Date: Sat May 23 15:22:59 2020
Total elapsed time: 0.263 seconds.

tnom = 27
temp = 27
method = modified trap
totiter = 15328
traniter = 14929
tranpoints = 5856
accept = 4778
rejected = 1078
matrix size = 45
fillins = 14
solver = Normal
Matrix Compiler1: 2.48 KB object code size  1.1/1.0/[0.2]
Matrix Compiler2: 3.92 KB object code size  0.8/1.1/[0.6]

