Circuit: * C:\Users\ohvic\Documents\ITBA\ASSD_2020_G4\TP1\SPICE FINAL\main.asc

WARNING: Less than two connections to node OSC:NC_01.  This node is used by R:OSC:X2:2.
Early termination of direct N-R iteration.
Direct Newton iteration failed to find .op point.  (Use ".option noopiter" to skip.)
Starting Gmin stepping
Gmin = 10
vernier = 0.5
vernier = 0.25
vernier = 0.125
Gmin = 5.49741
vernier = 0.0625
vernier = 0.03125
vernier = 0.015625
vernier = 0.0078125
Gmin = 5.51716
vernier = 0.00390625
vernier = 0.00195313
vernier = 0.000976563
vernier = 0.000488281
Gmin = 5.50104
Gmin = 0
Gmin stepping failed

Starting source stepping with srcstepmethod=0
Source Step = 3.0303%
Source Step = 9.84848%
Source Step = 17.4242%
Source Step = 25%
Source Step = 32.5758%
Source Step = 40.1515%
vernier = 0.375
Source Step = 50.7576%
Source Step = 62.1212%
Source Step = 73.4848%
Source Step = 84.8485%
Source Step = 96.2121%
vernier = 0.5625
Source stepping succeeded in finding the operating point.

Ignoring empty pin current: Ix(u1:3)
Ignoring empty pin current: Ix(u1:8)
Ignoring empty pin current: Ix(u1:7)
Ignoring empty pin current: Ix(u1:4)
Ignoring empty pin current: Ix(u1:6)
Ignoring empty pin current: Ix(u1:5)
Ignoring empty pin current: Ix(u1:1)
Ignoring empty pin current: Ix(s_h:ctrl)
Ignoring empty pin current: Ix(s_h:in)
Ignoring empty pin current: Ix(s_h:out)
Ignoring empty pin current: Ix(s_h:vcc)
Ignoring empty pin current: Ix(s_h:vee)
Ignoring empty pin current: Ix(a_s:ctrl)
Ignoring empty pin current: Ix(u1:3)
Ignoring empty pin current: Ix(u1:8)
Ignoring empty pin current: Ix(u1:7)
Ignoring empty pin current: Ix(u1:4)
Ignoring empty pin current: Ix(u1:6)
Ignoring empty pin current: Ix(u1:5)
Ignoring empty pin current: Ix(u1:1)
Ignoring empty pin current: Ix(s_h:ctrl)
Ignoring empty pin current: Ix(s_h:in)
Ignoring empty pin current: Ix(s_h:out)
Ignoring empty pin current: Ix(s_h:vcc)
Ignoring empty pin current: Ix(s_h:vee)
Ignoring empty pin current: Ix(a_s:ctrl)
Heightened Def Con from 1.11754e-007 to 1.11754e-007
Heightened Def Con from 1.11754e-007 to 1.11754e-007
Heightened Def Con from 1.11754e-007 to 1.11754e-007
Heightened Def Con from 1.11754e-007 to 1.11754e-007
Heightened Def Con from 1.11754e-007 to 1.11754e-007
Heightened Def Con from 1.11754e-007 +to 1.11754e-007
Heightened Def Con from 1.11754e-007 +to 1.11754e-007
Heightened Def Con from 1.11754e-007 +to 1.11754e-007
Heightened Def Con from 1.11754e-007 +to 1.11754e-007
Heightened Def Con from 1.11754e-007 +to 1.11754e-007
Heightened Def Con from 1.11754e-007 +to 1.11754e-007
Heightened Def Con from 1.11754e-007 +to 1.11754e-007
Heightened Def Con from 1.11754e-007 +to 1.11754e-007
Heightened Def Con from 1.11754e-007 +to 1.11754e-007
Heightened Def Con from 1.11754e-007 +to 1.11754e-007
Heightened Def Con from 1.11754e-007 +to 1.11754e-007
Heightened Def Con from 1.11754e-007 +to 1.11754e-007
Heightened Def Con from 1.11754e-007 +to 1.11754e-007
Heightened Def Con from 1.11754e-007 +to 1.11754e-007
Heightened Def Con from 1.11754e-007 +to 1.11754e-007
Heightened Def Con from 1.11754e-007 +to 1.11754e-007
Heightened Def Con from 1.11754e-007 +to 1.11754e-007
Heightened Def Con from 1.11754e-007 +to 1.11754e-007
Heightened Def Con from 1.11754e-007 +to 1.11754e-007
Heightened Def Con from 1.11754e-007 +to 1.11754e-007
Heightened Def Con from 1.11754e-007 +to 1.11754e-007
Heightened Def Con from 1.11754e-007 +to 1.11754e-007
Heightened Def Con from 1.11754e-007 +to 1.11754e-007
Heightened Def Con from 1.11754e-007 +to 1.11754e-007
Heightened Def Con from 1.11754e-007 +to 1.11754e-007
Heightened Def Con from 1.11754e-007 +to 1.11754e-007
Heightened Def Con from 1.11754e-007 +to 1.11754e-007
Heightened Def Con from 1.11754e-007 +to 1.11754e-007
Heightened Def Con from 1.11754e-007 +to 1.11754e-007
Heightened Def Con from 1.11754e-007 +to 1.11754e-007
Heightened Def Con from 1.11754e-007 +to 1.11754e-007
Heightened Def Con from 1.11754e-007 +to 1.11754e-007
Heightened Def Con from 1.11754e-007 +to 1.11754e-007
Heightened Def Con from 1.11754e-007 +to 1.11754e-007
Heightened Def Con from 1.11754e-007 +to 1.11754e-007
Heightened Def Con from 1.11754e-007 +to 1.11754e-007
Heightened Def Con from 1.11754e-007 +to 1.11754e-007
Heightened Def Con from 1.11754e-007 +to 1.11754e-007
Heightened Def Con from 1.11754e-007 +to 1.11754e-007
Heightened Def Con from 1.11754e-007 +to 1.11754e-007
Heightened Def Con from 1.11754e-007 +to 1.11754e-007
Heightened Def Con from 1.11754e-007 +to 1.11754e-007
Heightened Def Con from 1.11754e-007 +to 1.11754e-007
Heightened Def Con from 1.11754e-007 +to 1.11754e-007
Heightened Def Con from 1.11754e-007 +to 1.11754e-007
Heightened Def Con from 1.11754e-007 +to 1.11754e-007
Heightened Def Con from 1.11754e-007 +to 1.11754e-007
Heightened Def Con from 1.11754e-007 +to 1.11754e-007
Heightened Def Con from 1.11754e-007 ++to 1.11754e-007
Heightened Def Con from 1.11754e-007 ++to 1.11754e-007
Heightened Def Con from 1.11754e-007 ++to 1.11754e-007
Heightened Def Con from 1.11754e-007 ++to 1.11754e-007
Heightened Def Con from 1.11754e-007 ++to 1.11754e-007
Heightened Def Con from 1.11754e-007 ++to 1.11754e-007
Heightened Def Con from 1.11754e-007 ++to 1.11754e-007
Heightened Def Con from 1.11754e-007 ++to 1.11754e-007
Heightened Def Con from 1.11754e-007 ++to 1.11754e-007
Heightened Def Con from 1.11754e-007 ++to 1.11754e-007
Heightened Def Con from 1.11754e-007 ++to 1.11754e-007
Heightened Def Con from 1.11754e-007 ++to 1.11754e-007
Heightened Def Con from 1.11754e-007 ++to 1.11754e-007
Heightened Def Con from 1.11754e-007 ++to 1.11754e-007
Heightened Def Con from 1.11754e-007 ++to 1.11754e-007
Heightened Def Con from 1.11754e-007 ++to 1.11754e-007
Heightened Def Con from 1.11754e-007 ++to 1.11754e-007
Heightened Def Con from 1.11754e-007 ++to 1.11754e-007
Heightened Def Con from 1.11754e-007 ++to 1.11754e-007
Heightened Def Con from 1.11754e-007 ++to 1.11754e-007
Heightened Def Con from 1.11754e-007 ++to 1.11754e-007
Heightened Def Con from 1.11754e-007 ++to 1.11754e-007
Heightened Def Con from 1.11754e-007 ++to 1.11754e-007
Heightened Def Con from 1.11754e-007 ++to 1.11754e-007
Heightened Def Con from 1.11754e-007 ++to 1.11754e-007
Heightened Def Con from 1.11754e-007 ++to 1.11754e-007
Heightened Def Con from 1.11754e-007 ++to 1.11754e-007
Heightened Def Con from 1.11754e-007 ++to 1.11754e-007
Heightened Def Con from 1.11754e-007 ++to 1.11754e-007
Heightened Def Con from 1.11754e-007 ++to 1.11754e-007
Heightened Def Con from 1.11754e-007 ++to 1.11754e-007
Heightened Def Con from 1.11754e-007 ++to 1.11754e-007
Heightened Def Con from 1.11754e-007 ++to 1.11754e-007
Heightened Def Con from 1.11754e-007 ++to 1.11754e-007
Heightened Def Con from 1.11754e-007 ++to 1.11754e-007
Heightened Def Con from 1.11754e-007 ++to 1.11754e-007
Heightened Def Con from 1.11754e-007 ++to 1.11754e-007
Heightened Def Con from 1.11754e-007 ++to 1.11754e-007
Heightened Def Con from 1.11754e-007 ++to 1.11754e-007
Heightened Def Con from 1.11754e-007 ++to 1.11754e-007
Heightened Def Con from 1.11754e-007 ++to 1.11754e-007
Heightened Def Con from 1.11754e-007 ++to 1.11754e-007
Heightened Def Con from 1.11754e-007 ++to 1.11754e-007
Heightened Def Con from 1.11754e-007 ++to 1.11754e-007
Heightened Def Con from 1.11754e-007 ++to 1.11754e-007
Heightened Def Con from 1.11754e-007 ++to 1.11754e-007
Heightened Def Con from 1.11754e-007 ++to 1.11754e-007
Heightened Def Con from 1.11754e-007 ++to 1.11754e-007
Heightened Def Con from 1.11754e-007 ++to 1.11754e-007
Heightened Def Con from 1.11754e-007 ++to 1.11754e-007
Heightened Def Con from 1.11754e-007 ++to 1.11754e-007
Heightened Def Con from 1.11754e-007 ++to 1.11754e-007
Heightened Def Con from 1.11754e-007 ++to 1.11754e-007
Heightened Def Con from 1.11754e-007 ++to 1.11754e-007
Heightened Def Con from 1.11754e-007 ++to 1.11754e-007
Heightened Def Con from 1.11754e-007 ++to 1.11754e-007
Heightened Def Con from 1.11754e-007 ++to 1.11754e-007
Heightened Def Con from 1.11754e-007 ++to 1.11754e-007
Heightened Def Con from 1.11754e-007 +++to 1.11754e-007
Heightened Def Con from 1.11754e-007 +++to 1.11754e-007
Heightened Def Con from 1.11754e-007 +++to 1.11754e-007
Heightened Def Con from 1.11754e-007 +++to 1.11754e-007
Heightened Def Con from 1.11754e-007 +++to 1.11754e-007
Heightened Def Con from 1.11754e-007 +++to 1.11754e-007
Heightened Def Con from 1.11754e-007 +++to 1.11754e-007
Heightened Def Con from 1.11754e-007 +++to 1.11754e-007
Heightened Def Con from 1.11754e-007 +++to 1.11754e-007
Heightened Def Con from 1.11754e-007 +++to 1.11754e-007
Heightened Def Con from 1.11754e-007 +++to 1.11754e-007
Heightened Def Con from 1.11754e-007 +++to 1.11754e-007
Heightened Def Con from 1.11754e-007 +++to 1.11754e-007
Heightened Def Con from 1.11754e-007 +++to 1.11754e-007
Heightened Def Con from 1.11754e-007 +++to 1.11754e-007
Heightened Def Con from 1.11754e-007 +++to 1.11754e-007
Heightened Def Con from 1.11754e-007 +++to 1.11754e-007
Heightened Def Con from 1.11754e-007 +++to 1.11754e-007
Heightened Def Con from 1.11754e-007 +++to 1.11754e-007
Heightened Def Con from 1.11754e-007 ++++to 1.11754e-007
Heightened Def Con from 1.11754e-007 +++to 1.11754e-007
Heightened Def Con from 1.11754e-007 ++++to 1.11754e-007
Heightened Def Con from 1.11754e-007 +++to 1.11754e-007
Heightened Def Con from 1.11754e-007 +++to 1.11754e-007
Heightened Def Con from 1.11754e-007 +++to 1.11754e-007
Heightened Def Con from 1.11754e-007 +++to 1.11754e-007
Heightened Def Con from 1.11754e-007 +++to 1.11754e-007
Heightened Def Con from 1.11754e-007 +++to 1.11754e-007
Heightened Def Con from 1.11754e-007 +++to 1.11754e-007
Heightened Def Con from 1.11754e-007 +++to 1.11754e-007
Heightened Def Con from 1.11754e-007 +++to 1.11754e-007
Heightened Def Con from 1.11754e-007 +++to 1.11754e-007
Heightened Def Con from 1.11754e-007 +++to 1.11754e-007
Heightened Def Con from 1.11754e-007 +++to 1.11754e-007
Heightened Def Con from 1.11754e-007 +++to 1.11754e-007
Heightened Def Con from 1.11754e-007 +++to 1.11754e-007
Heightened Def Con from 1.11754e-007 +++to 1.11754e-007
Heightened Def Con from 1.11754e-007 +++to 1.11754e-007
Heightened Def Con from 1.11754e-007 +++to 1.11754e-007
Heightened Def Con from 1.11754e-007 +++to 1.11754e-007
Heightened Def Con from 1.11754e-007 +++to 1.11754e-007
Heightened Def Con from 1.11754e-007 +++to 1.11754e-007
Heightened Def Con from 1.11754e-007 +++to 1.11754e-007
Heightened Def Con from 1.11754e-007 +++to 1.11754e-007
Heightened Def Con from 1.11754e-007 +++to 1.11754e-007
Heightened Def Con from 1.11754e-007 +++to 1.11754e-007
Heightened Def Con from 1.11754e-007 +++to 1.11754e-007
Heightened Def Con from 1.11754e-007 +++to 1.11754e-007
Heightened Def Con from 1.11754e-007 +++to 1.11754e-007
Heightened Def Con from 1.11754e-007 +++to 1.11754e-007
Heightened Def Con from 1.11754e-007 +++to 1.11754e-007
Heightened Def Con from 1.11754e-007 +++to 1.11754e-007
Heightened Def Con from 1.11754e-007 +++to 1.11754e-007
Heightened Def Con from 1.11754e-007 +++to 1.11754e-007
Heightened Def Con from 1.11754e-007 +++to 1.11754e-007
Heightened Def Con from 1.11754e-007 +++to 1.11754e-007
Heightened Def Con from 1.11754e-007 +++to 1.11754e-007
Heightened Def Con from 1.11754e-007 ++++to 1.11754e-007
Heightened Def Con from 1.11754e-007 ++++to 1.11754e-007
Heightened Def Con from 1.11754e-007 ++++to 1.11754e-007
Heightened Def Con from 1.11754e-007 ++++to 1.11754e-007
Heightened Def Con from 1.11754e-007 ++++to 1.11754e-007
Heightened Def Con from 1.11754e-007 ++++to 1.11754e-007
Heightened Def Con from 1.11754e-007 ++++to 1.11754e-007
Heightened Def Con from 1.11754e-007 ++++to 1.11754e-007
Heightened Def Con from 1.11754e-007 ++++to 1.11754e-007
Heightened Def Con from 1.11754e-007 ++++to 1.11754e-007
Heightened Def Con from 1.11754e-007 ++++to 1.11754e-007
Heightened Def Con from 1.11754e-007 ++++to 1.11754e-007
Heightened Def Con from 1.11754e-007 ++++to 1.11754e-007
Heightened Def Con from 1.11754e-007 ++++to 1.11754e-007
Heightened Def Con from 1.11754e-007 ++++to 1.11754e-007
Heightened Def Con from 1.11754e-007 ++++to 1.11754e-007
Heightened Def Con from 1.11754e-007 ++++to 1.11754e-007
Heightened Def Con from 1.11754e-007 ++++to 1.11754e-007
Heightened Def Con from 1.11754e-007 ++++to 1.11754e-007
Heightened Def Con from 1.11754e-007 ++++to 1.11754e-007
Heightened Def Con from 1.11754e-007 ++++to 1.11754e-007
Heightened Def Con from 1.11754e-007 ++++to 1.11754e-007
Heightened Def Con from 1.11754e-007 ++++to 1.11754e-007
Heightened Def Con from 1.11754e-007 ++++to 1.11754e-007
Heightened Def Con from 1.11754e-007 ++++to 1.11754e-007
Heightened Def Con from 1.11754e-007 ++++to 1.11754e-007
Heightened Def Con from 1.11754e-007 ++++to 1.11754e-007
Heightened Def Con from 1.11754e-007 ++++to 1.11754e-007
Heightened Def Con from 1.11754e-007 ++++to 1.11754e-007
Heightened Def Con from 1.11754e-007 ++++to 1.11754e-007
Heightened Def Con from 1.11754e-007 ++++to 1.11754e-007
Heightened Def Con from 1.11754e-007 ++++to 1.11754e-007
Heightened Def Con from 1.11754e-007 ++++to 1.11754e-007
Heightened Def Con from 1.11754e-007 ++++to 1.11754e-007
Heightened Def Con from 1.11754e-007 ++++to 1.11754e-007
Heightened Def Con from 1.11754e-007 ++++to 1.11754e-007
Heightened Def Con from 1.11754e-007 ++++to 1.11754e-007
Heightened Def Con from 1.11754e-007 ++++to 1.11754e-007
Heightened Def Con from 1.11754e-007 ++++to 1.11754e-007
Heightened Def Con from 1.11754e-007 ++++to 1.11754e-007
Heightened Def Con from 1.11754e-007 ++++to 1.11754e-007
Heightened Def Con from 1.11754e-007 ++++to 1.11754e-007
Heightened Def Con from 1.11754e-007 ++++to 1.11754e-007
Heightened Def Con from 1.11754e-007 ++++to 1.11754e-007
Heightened Def Con from 1.11754e-007 ++++to 1.11754e-007
Heightened Def Con from 1.11754e-007 ++++to 1.11754e-007
Heightened Def Con from 1.11754e-007 ++++to 1.11754e-007
Heightened Def Con from 1.11754e-007 ++++to 1.11754e-007
Heightened Def Con from 1.11754e-007 ++++to 1.11754e-007
Heightened Def Con from 1.11754e-007 ++++to 1.11754e-007
Heightened Def Con from 1.11754e-007 ++++to 1.11754e-007
Heightened Def Con from 1.11754e-007 ++++to 1.11754e-007
Heightened Def Con from 1.11754e-007 ++++to 1.11754e-007
Heightened Def Con from 1.11754e-007 ++++to 1.11754e-007
Heightened Def Con from 1.11754e-007 ++++to 1.11754e-007
Heightened Def Con from 1.11754e-007 ++++to 1.11754e-007
Heightened Def Con from 1.11754e-007 ++++to 1.11754e-007
Heightened Def Con from 1.11754e-007 ++++to 1.11754e-007
Heightened Def Con from 1.11754e-007 ++++to 1.11754e-007
Heightened Def Con from 1.11754e-007 ++++to 1.11754e-007
Heightened Def Con from 1.11754e-007 ++++to 1.11754e-007
Heightened Def Con from 1.11754e-007 ++++to 1.11754e-007
Heightened Def Con from 1.11754e-007 ++++to 1.11754e-007
Heightened Def Con from 1.11754e-007 ++++to 1.11754e-007
Heightened Def Con from 1.11754e-007 ++++to 1.11754e-007
Heightened Def Con from 1.11754e-007 ++++to 1.11754e-007
Heightened Def Con from 1.11754e-007 ++++to 1.11754e-007
Heightened Def Con from 1.11754e-007 ++++to 1.11754e-007
Heightened Def Con from 1.11754e-007 ++++to 1.11754e-007
Heightened Def Con from 1.11754e-007 ++++to 1.11754e-007
Heightened Def Con from 1.11754e-007 ++++to 1.11754e-007
Heightened Def Con from 1.11754e-007 ++++to 1.11754e-007
Heightened Def Con from 1.11754e-007 ++++to 1.11754e-007
Heightened Def Con from 1.11754e-007 ++++to 1.11754e-007
Heightened Def Con from 1.11754e-007 ++++to 1.11754e-007
Heightened Def Con from 1.11754e-007 ++++to 1.11754e-007
Heightened Def Con from 1.11754e-007 ++++to 1.11754e-007
Heightened Def Con from 1.11754e-007 ++++to 1.11754e-007
Heightened Def Con from 1.11754e-007 ++++to 1.11754e-007
Heightened Def Con from 1.11754e-007 ++++to 1.11754e-007
Heightened Def Con from 1.11754e-007 ++++to 1.11754e-007
Heightened Def Con from 1.11754e-007 ++++to 1.11754e-007
Heightened Def Con from 1.11754e-007 ++++to 1.11754e-007
Heightened Def Con from 1.11754e-007 ++++to 1.11754e-007
Heightened Def Con from 1.11754e-007 ++++to 1.11754e-007
Heightened Def Con from 1.11754e-007 ++++to 1.11754e-007
Heightened Def Con from 1.11754e-007 ++++to 1.11754e-007
Heightened Def Con from 1.11754e-007 ++++to 1.11754e-007
Heightened Def Con from 1.11754e-007 ++++to 1.11754e-007
Heightened Def Con from 1.11754e-007 ++++to 1.11754e-007
Heightened Def Con from 1.11754e-007 ++++to 1.11754e-007
Heightened Def Con from 1.11754e-007 ++++to 1.11754e-007
Heightened Def Con from 1.11754e-007 ++++to 1.11754e-007
Heightened Def Con from 1.11754e-007 ++++to 1.11754e-007
Heightened Def Con from 1.11754e-007 +++++to 1.11754e-007
Heightened Def Con from 1.11754e-007 +++++to 1.11754e-007
Heightened Def Con from 1.11754e-007 +++++to 1.11754e-007
Heightened Def Con from 1.11754e-007 +++++to 1.11754e-007
Heightened Def Con from 1.11754e-007 +++++to 1.11754e-007
Heightened Def Con from 1.11754e-007 +++++to 1.11754e-007
Heightened Def Con from 1.11754e-007 +++++to 1.11754e-007
Heightened Def Con from 1.11754e-007 +++++to 1.11754e-007
Heightened Def Con from 1.11754e-007 +++++to 1.11754e-007
Heightened Def Con from 1.11754e-007 +++++to 1.11754e-007
Heightened Def Con from 1.11754e-007 +++++to 1.11754e-007
Heightened Def Con from 1.11754e-007 +++++to 1.11754e-007
Heightened Def Con from 1.11754e-007 +++++to 1.11754e-007
Heightened Def Con from 1.11754e-007 +++++to 1.11754e-007
Heightened Def Con from 1.11754e-007 +++++to 1.11754e-007
Heightened Def Con from 1.11754e-007 +++++to 1.11754e-007
Heightened Def Con from 1.11754e-007 +++++to 1.11754e-007
Heightened Def Con from 1.11754e-007 +++++to 1.11754e-007
Heightened Def Con from 1.11754e-007 +++++to 1.11754e-007
Heightened Def Con from 1.11754e-007 +++++to 1.11754e-007
Heightened Def Con from 1.11754e-007 +++++to 1.11754e-007
Heightened Def Con from 1.11754e-007 +++++to 1.11754e-007
Heightened Def Con from 1.11754e-007 +++++to 1.11754e-007
Heightened Def Con from 1.11754e-007 +++++to 1.11754e-007
Heightened Def Con from 1.11754e-007 +++++to 1.11754e-007
Heightened Def Con from 1.11754e-007 +++++to 1.11754e-007
Heightened Def Con from 1.11754e-007 +++++to 1.11754e-007
Heightened Def Con from 1.11754e-007 +++++to 1.11754e-007
Heightened Def Con from 1.11754e-007 +++++to 1.11754e-007
Heightened Def Con from 1.11754e-007 +++++to 1.11754e-007
Heightened Def Con from 1.11754e-007 +++++to 1.11754e-007
Heightened Def Con from 1.11754e-007 +++++to 1.11754e-007
Heightened Def Con from 1.11754e-007 +++++to 1.11754e-007
Heightened Def Con from 1.11754e-007 +++++to 1.11754e-007
Heightened Def Con from 1.11754e-007 +++++to 1.11754e-007
Heightened Def Con from 1.11754e-007 +++++to 1.11754e-007
Heightened Def Con from 1.11754e-007 +++++to 1.11754e-007
Heightened Def Con from 1.11754e-007 +++++to 1.11754e-007
Heightened Def Con from 1.11754e-007 +++++to 1.11754e-007
Heightened Def Con from 1.11754e-007 +++++to 1.11754e-007
Heightened Def Con from 1.11754e-007 +++++to 1.11754e-007
Heightened Def Con from 1.11754e-007 +++++to 1.11754e-007
Heightened Def Con from 1.11754e-007 +++++to 1.11754e-007
Heightened Def Con from 1.11754e-007 +++++to 1.11754e-007
Heightened Def Con from 1.11754e-007 +++++to 1.11754e-007
Heightened Def Con from 1.11754e-007 +++++to 1.11754e-007
Heightened Def Con from 1.11754e-007 +++++to 1.11754e-007
Heightened Def Con from 1.11754e-007 +++++to 1.11754e-007
Heightened Def Con from 1.11754e-007 +++++to 1.11754e-007
Heightened Def Con from 1.11754e-007 +++++to 1.11754e-007
Heightened Def Con from 1.11754e-007 +++++to 1.11754e-007
Heightened Def Con from 1.11754e-007 +++++to 1.11754e-007
Heightened Def Con from 1.11754e-007 +++++to 1.11754e-007
Heightened Def Con from 1.11754e-007 +++++to 1.11754e-007
Heightened Def Con from 1.11754e-007 +++++to 1.11754e-007
Heightened Def Con from 1.11754e-007 +++++to 1.11754e-007
Heightened Def Con from 1.11754e-007 +++++to 1.11754e-007
Heightened Def Con from 1.11754e-007 +++++to 1.11754e-007
Heightened Def Con from 1.11754e-007 +++++to 1.11754e-007
Heightened Def Con from 1.11754e-007 +++++to 1.11754e-007
Heightened Def Con from 1.11754e-007 +++++to 1.11754e-007
Heightened Def Con from 1.11754e-007 +++++to 1.11754e-007
Heightened Def Con from 1.11754e-007 +++++to 1.11754e-007
Heightened Def Con from 1.11754e-007 +++++to 1.11754e-007
Heightened Def Con from 1.11754e-007 +++++to 1.11754e-007
Heightened Def Con from 1.11754e-007 +++++to 1.11754e-007
Heightened Def Con from 1.11754e-007 +++++to 1.11754e-007
Heightened Def Con from 1.11754e-007 +++++to 1.11754e-007
Heightened Def Con from 1.11754e-007 +++++to 1.11754e-007
Heightened Def Con from 1.11754e-007 +++++to 1.11754e-007
Heightened Def Con from 1.11754e-007 +++++to 1.11754e-007
Heightened Def Con from 1.11754e-007 +++++to 1.11754e-007
Heightened Def Con from 1.11754e-007 +++++to 1.11754e-007
Heightened Def Con from 1.11754e-007 +++++to 1.11754e-007
Heightened Def Con from 1.11754e-007 +++++to 1.11754e-007
Heightened Def Con from 1.11754e-007 +++++to 1.11754e-007
Heightened Def Con from 1.11754e-007 +++++to 1.11754e-007
Heightened Def Con from 1.11754e-007 +++++to 1.11754e-007
Heightened Def Con from 1.11754e-007 +++++to 1.11754e-007
Heightened Def Con from 1.11754e-007 +++++to 1.11754e-007
Heightened Def Con from 1.11754e-007 +++++to 1.11754e-007
Heightened Def Con from 1.11754e-007 +++++to 1.11754e-007
Heightened Def Con from 1.11754e-007 +++++to 1.11754e-007
Heightened Def Con from 1.11754e-007 +++++to 1.11754e-007
Heightened Def Con from 1.11754e-007 +++++to 1.11754e-007
Heightened Def Con from 1.11754e-007 +++++to 1.11754e-007
Heightened Def Con from 1.11754e-007 +++++to 1.11754e-007
Heightened Def Con from 1.11754e-007 +++++to 1.11754e-007
Heightened Def Con from 1.11754e-007 +++++to 1.11754e-007
Heightened Def Con from 1.11754e-007 +++++to 1.11754e-007
Heightened Def Con from 1.11754e-007 +++++to 1.11754e-007
Heightened Def Con from 1.11754e-007 +++++to 1.11754e-007
Heightened Def Con from 1.11754e-007 +++++to 1.11754e-007
Heightened Def Con from 1.11754e-007 +++++to 1.11754e-007
Heightened Def Con from 1.11754e-007 +++++to 1.11754e-007
Heightened Def Con from 1.11754e-007 +++++to 1.11754e-007
Heightened Def Con from 1.11754e-007 +++++to 1.11754e-007
Heightened Def Con from 1.11754e-007 +++++to 1.11754e-007
Heightened Def Con from 1.11754e-007 +++++to 1.11754e-007
Heightened Def Con from 1.11754e-007 +++++to 1.11754e-007
Heightened Def Con from 1.11754e-007 +++++to 1.11754e-007
Heightened Def Con from 1.11754e-007 ++++++to 1.11754e-007
Heightened Def Con from 1.11754e-007 ++++++to 1.11754e-007
Heightened Def Con from 1.11754e-007 ++++++to 1.11754e-007
Heightened Def Con from 1.11754e-007 ++++++to 1.11754e-007
Heightened Def Con from 1.11754e-007 ++++++to 1.11754e-007
Heightened Def Con from 1.11754e-007 ++++++to 1.11754e-007
Heightened Def Con from 1.11754e-007 ++++++to 1.11754e-007
Heightened Def Con from 1.11754e-007 ++++++to 1.11754e-007
Heightened Def Con from 1.11754e-007 ++++++to 1.11754e-007
Heightened Def Con from 1.11754e-007 ++++++to 1.11754e-007
Heightened Def Con from 1.11754e-007 ++++++to 1.11754e-007
Heightened Def Con from 1.11754e-007 ++++++to 1.11754e-007
Heightened Def Con from 1.11754e-007 ++++++to 1.11754e-007
Heightened Def Con from 1.11754e-007 ++++++to 1.11754e-007
Heightened Def Con from 1.11754e-007 ++++++to 1.11754e-007
Heightened Def Con from 1.11754e-007 ++++++to 1.11754e-007
Heightened Def Con from 1.11754e-007 ++++++to 1.11754e-007
Heightened Def Con from 1.11754e-007 ++++++to 1.11754e-007
Heightened Def Con from 1.11754e-007 ++++++to 1.11754e-007
Heightened Def Con from 1.11754e-007 ++++++to 1.11754e-007
Heightened Def Con from 1.11754e-007 ++++++to 1.11754e-007
Heightened Def Con from 1.11754e-007 ++++++to 1.11754e-007
Heightened Def Con from 1.11754e-007 ++++++to 1.11754e-007
Heightened Def Con from 1.11754e-007 ++++++to 1.11754e-007
Heightened Def Con from 1.11754e-007 ++++++to 1.11754e-007
Heightened Def Con from 1.11754e-007 ++++++to 1.11754e-007
Heightened Def Con from 1.11754e-007 ++++++to 1.11754e-007
Heightened Def Con from 1.11754e-007 ++++++to 1.11754e-007
Heightened Def Con from 1.11754e-007 ++++++to 1.11754e-007
Heightened Def Con from 1.11754e-007 ++++++to 1.11754e-007
Heightened Def Con from 1.11754e-007 ++++++to 1.11754e-007
Heightened Def Con from 1.11754e-007 ++++++to 1.11754e-007
Heightened Def Con from 1.11754e-007 ++++++to 1.11754e-007
Heightened Def Con from 1.11754e-007 ++++++to 1.11754e-007
Heightened Def Con from 1.11754e-007 ++++++to 1.11754e-007
Heightened Def Con from 1.11754e-007 ++++++to 1.11754e-007
Heightened Def Con from 1.11754e-007 ++++++to 1.11754e-007
Heightened Def Con from 1.11754e-007 ++++++to 1.11754e-007
Heightened Def Con from 1.11754e-007 ++++++to 1.11754e-007
Heightened Def Con from 1.11754e-007 ++++++to 1.11754e-007
Heightened Def Con from 1.11754e-007 ++++++to 1.11754e-007
Heightened Def Con from 1.11754e-007 ++++++to 1.11754e-007
Heightened Def Con from 1.11754e-007 ++++++to 1.11754e-007
Heightened Def Con from 1.11754e-007 ++++++to 1.11754e-007
Heightened Def Con from 1.11754e-007 ++++++to 1.11754e-007
Heightened Def Con from 1.11754e-007 ++++++to 1.11754e-007
Heightened Def Con from 1.11754e-007 ++++++to 1.11754e-007
Heightened Def Con from 1.11754e-007 ++++++to 1.11754e-007
Heightened Def Con from 1.11754e-007 ++++++to 1.11754e-007
Heightened Def Con from 1.11754e-007 ++++++to 1.11754e-007
Heightened Def Con from 1.11754e-007 ++++++to 1.11754e-007
Heightened Def Con from 1.11754e-007 ++++++to 1.11754e-007
Heightened Def Con from 1.11754e-007 ++++++to 1.11754e-007
Heightened Def Con from 1.11754e-007 ++++++to 1.11754e-007
Heightened Def Con from 1.11754e-007 ++++++to 1.11754e-007
Heightened Def Con from 1.11754e-007 ++++++to 1.11754e-007
Heightened Def Con from 1.11754e-007 ++++++to 1.11754e-007
Heightened Def Con from 1.11754e-007 ++++++to 1.11754e-007
Heightened Def Con from 1.11754e-007 ++++++to 1.11754e-007
Heightened Def Con from 1.11754e-007 ++++++to 1.11754e-007
Heightened Def Con from 1.11754e-007 ++++++to 1.11754e-007
Heightened Def Con from 1.11754e-007 ++++++to 1.11754e-007
Heightened Def Con from 1.11754e-007 ++++++to 1.11754e-007
Heightened Def Con from 1.11754e-007 ++++++to 1.11754e-007
Heightened Def Con from 1.11754e-007 ++++++to 1.11754e-007
Heightened Def Con from 1.11754e-007 ++++++to 1.11754e-007
Heightened Def Con from 1.11754e-007 ++++++to 1.11754e-007
Heightened Def Con from 1.11754e-007 ++++++to 1.11754e-007
Heightened Def Con from 1.11754e-007 ++++++to 1.11754e-007
Heightened Def Con from 1.11754e-007 ++++++to 1.11754e-007
Heightened Def Con from 1.11754e-007 ++++++to 1.11754e-007
Heightened Def Con from 1.11754e-007 ++++++to 1.11754e-007
Heightened Def Con from 1.11754e-007 ++++++to 1.11754e-007
Heightened Def Con from 1.11754e-007 ++++++to 1.11754e-007
Heightened Def Con from 1.11754e-007 ++++++to 1.11754e-007
Heightened Def Con from 1.11754e-007 ++++++to 1.11754e-007
Heightened Def Con from 1.11754e-007 ++++++to 1.11754e-007
Heightened Def Con from 1.11754e-007 ++++++to 1.11754e-007
Heightened Def Con from 1.11754e-007 ++++++to 1.11754e-007
Heightened Def Con from 1.11754e-007 ++++++to 1.11754e-007
Heightened Def Con from 1.11754e-007 ++++++to 1.11754e-007
Heightened Def Con from 1.11754e-007 ++++++to 1.11754e-007
Heightened Def Con from 1.11754e-007 ++++++to 1.11754e-007
Heightened Def Con from 1.11754e-007 ++++++to 1.11754e-007
Heightened Def Con from 1.11754e-007 ++++++to 1.11754e-007
Heightened Def Con from 1.11754e-007 ++++++to 1.11754e-007
Heightened Def Con from 1.11754e-007 ++++++to 1.11754e-007
Heightened Def Con from 1.11754e-007 ++++++to 1.11754e-007
Heightened Def Con from 1.11754e-007 ++++++to 1.11754e-007
Heightened Def Con from 1.11754e-007 ++++++to 1.11754e-007
Heightened Def Con from 1.11754e-007 ++++++to 1.11754e-007
Heightened Def Con from 1.11754e-007 ++++++to 1.11754e-007
Heightened Def Con from 1.11754e-007 ++++++to 1.11754e-007
Heightened Def Con from 1.11754e-007 ++++++to 1.11754e-007
Heightened Def Con from 1.11754e-007 ++++++to 1.11754e-007
Heightened Def Con from 1.11754e-007 ++++++to 1.11754e-007
Heightened Def Con from 1.11754e-007 ++++++to 1.11754e-007
Heightened Def Con from 1.11754e-007 ++++++to 1.11754e-007
Heightened Def Con from 1.11754e-007 ++++++to 1.11754e-007
Heightened Def Con from 1.11754e-007 ++++++to 1.11754e-007
Heightened Def Con from 1.11754e-007 ++++++to 1.11754e-007
Heightened Def Con from 1.11754e-007 ++++++to 1.11754e-007
Heightened Def Con from 1.11754e-007 ++++++to 1.11754e-007
Heightened Def Con from 1.11754e-007 ++++++to 1.11754e-007
Heightened Def Con from 1.11754e-007 ++++++to 1.11754e-007
Heightened Def Con from 1.11754e-007 ++++++to 1.11754e-007
Heightened Def Con from 1.11754e-007 ++++++to 1.11754e-007
Heightened Def Con from 1.11754e-007 ++++++to 1.11754e-007
Heightened Def Con from 1.11754e-007 ++++++to 1.11754e-007
Heightened Def Con from 1.11754e-007 ++++++to 1.11754e-007
Heightened Def Con from 1.11754e-007 ++++++to 1.11754e-007
Heightened Def Con from 1.11754e-007 ++++++to 1.11754e-007
Heightened Def Con from 1.11754e-007 ++++++to 1.11754e-007
Heightened Def Con from 1.11754e-007 ++++++to 1.11754e-007
Heightened Def Con from 1.11754e-007 ++++++to 1.11754e-007
Heightened Def Con from 1.11754e-007 ++++++to 1.11754e-007
Heightened Def Con from 1.11754e-007 ++++++to 1.11754e-007
Heightened Def Con from 1.11754e-007 ++++++to 1.11754e-007
Heightened Def Con from 1.11754e-007 ++++++to 1.11754e-007
Heightened Def Con from 1.11754e-007 ++++++to 1.11754e-007
Heightened Def Con from 1.11754e-007 ++++++to 1.11754e-007
Heightened Def Con from 1.11754e-007 ++++++to 1.11754e-007
Heightened Def Con from 1.11754e-007 ++++++to 1.11754e-007
Heightened Def Con from 1.11754e-007 +++++++to 1.11754e-007
Heightened Def Con from 1.11754e-007 +++++++to 1.11754e-007
Heightened Def Con from 1.11754e-007 +++++++to 1.11754e-007
Heightened Def Con from 1.11754e-007 +++++++to 1.11754e-007
Heightened Def Con from 1.11754e-007 +++++++to 1.11754e-007
Heightened Def Con from 1.11754e-007 +++++++to 1.11754e-007
Heightened Def Con from 1.11754e-007 +++++++to 1.11754e-007
Heightened Def Con from 1.11754e-007 +++++++to 1.11754e-007
Heightened Def Con from 1.11754e-007 +++++++to 1.11754e-007
Heightened Def Con from 1.11754e-007 +++++++to 1.11754e-007
Heightened Def Con from 1.11754e-007 +++++++to 1.11754e-007
Heightened Def Con from 1.11754e-007 +++++++to 1.11754e-007
Heightened Def Con from 1.11754e-007 +++++++to 1.11754e-007
Heightened Def Con from 1.11754e-007 +++++++to 1.11754e-007
Heightened Def Con from 1.11754e-007 +++++++to 1.11754e-007
Heightened Def Con from 1.11754e-007 +++++++to 1.11754e-007
Heightened Def Con from 1.11754e-007 +++++++to 1.11754e-007
Heightened Def Con from 1.11754e-007 +++++++to 1.11754e-007
Heightened Def Con from 1.11754e-007 +++++++to 1.11754e-007
Heightened Def Con from 1.11754e-007 +++++++to 1.11754e-007
Heightened Def Con from 1.11754e-007 +++++++to 1.11754e-007
Heightened Def Con from 1.11754e-007 +++++++to 1.11754e-007
Heightened Def Con from 1.11754e-007 +++++++to 1.11754e-007
Heightened Def Con from 1.11754e-007 +++++++to 1.11754e-007
Heightened Def Con from 1.11754e-007 +++++++to 1.11754e-007
Heightened Def Con from 1.11754e-007 +++++++to 1.11754e-007
Heightened Def Con from 1.11754e-007 +++++++to 1.11754e-007
Heightened Def Con from 1.11754e-007 +++++++to 1.11754e-007
Heightened Def Con from 1.11754e-007 +++++++to 1.11754e-007
Heightened Def Con from 1.11754e-007 +++++++to 1.11754e-007
Heightened Def Con from 1.11754e-007 +++++++to 1.11754e-007
Heightened Def Con from 1.11754e-007 +++++++to 1.11754e-007
Heightened Def Con from 1.11754e-007 +++++++to 1.11754e-007
Heightened Def Con from 1.11754e-007 +++++++to 1.11754e-007
Heightened Def Con from 1.11754e-007 +++++++to 1.11754e-007
Heightened Def Con from 1.11754e-007 +++++++to 1.11754e-007
Heightened Def Con from 1.11754e-007 +++++++to 1.11754e-007
Heightened Def Con from 1.11754e-007 +++++++to 1.11754e-007
Heightened Def Con from 1.11754e-007 +++++++to 1.11754e-007
Heightened Def Con from 1.11754e-007 +++++++to 1.11754e-007
Heightened Def Con from 1.11754e-007 +++++++to 1.11754e-007
Heightened Def Con from 1.11754e-007 +++++++to 1.11754e-007
Heightened Def Con from 1.11754e-007 +++++++to 1.11754e-007
Heightened Def Con from 1.11754e-007 +++++++to 1.11754e-007
Heightened Def Con from 1.11754e-007 +++++++to 1.11754e-007
Heightened Def Con from 1.11754e-007 +++++++to 1.11754e-007
Heightened Def Con from 1.11754e-007 +++++++to 1.11754e-007
Heightened Def Con from 1.11754e-007 +++++++to 1.11754e-007
Heightened Def Con from 1.11754e-007 +++++++to 1.11754e-007
Heightened Def Con from 1.11754e-007 +++++++to 1.11754e-007
Heightened Def Con from 1.11754e-007 +++++++to 1.11754e-007
Heightened Def Con from 1.11754e-007 +++++++to 1.11754e-007
Heightened Def Con from 1.11754e-007 +++++++to 1.11754e-007
Heightened Def Con from 1.11754e-007 +++++++to 1.11754e-007
Heightened Def Con from 1.11754e-007 +++++++to 1.11754e-007
Heightened Def Con from 1.11754e-007 +++++++to 1.11754e-007
Heightened Def Con from 1.11754e-007 +++++++to 1.11754e-007
Heightened Def Con from 1.11754e-007 +++++++to 1.11754e-007
Heightened Def Con from 1.11754e-007 +++++++to 1.11754e-007
Heightened Def Con from 1.11754e-007 +++++++to 1.11754e-007
Heightened Def Con from 1.11754e-007 +++++++to 1.11754e-007
Heightened Def Con from 1.11754e-007 +++++++to 1.11754e-007
Heightened Def Con from 1.11754e-007 +++++++to 1.11754e-007
Heightened Def Con from 1.11754e-007 +++++++to 1.11754e-007
Heightened Def Con from 1.11754e-007 +++++++to 1.11754e-007
Heightened Def Con from 1.11754e-007 +++++++to 1.11754e-007
Heightened Def Con from 1.11754e-007 +++++++to 1.11754e-007
Heightened Def Con from 1.11754e-007 +++++++to 1.11754e-007
Heightened Def Con from 1.11754e-007 +++++++to 1.11754e-007
Heightened Def Con from 1.11754e-007 +++++++to 1.11754e-007
Heightened Def Con from 1.11754e-007 +++++++to 1.11754e-007
Heightened Def Con from 1.11754e-007 +++++++to 1.11754e-007
Heightened Def Con from 1.11754e-007 +++++++to 1.11754e-007
Heightened Def Con from 1.11754e-007 +++++++to 1.11754e-007
Heightened Def Con from 1.11754e-007 +++++++to 1.11754e-007
Heightened Def Con from 1.11754e-007 +++++++to 1.11754e-007
Heightened Def Con from 1.11754e-007 +++++++to 1.11754e-007
Heightened Def Con from 1.11754e-007 +++++++to 1.11754e-007
Heightened Def Con from 1.11754e-007 +++++++to 1.11754e-007
Heightened Def Con from 1.11754e-007 +++++++to 1.11754e-007
Heightened Def Con from 1.11754e-007 +++++++to 1.11754e-007
Heightened Def Con from 1.11754e-007 +++++++to 1.11754e-007
Heightened Def Con from 1.11754e-007 +++++++to 1.11754e-007
Heightened Def Con from 1.11754e-007 +++++++to 1.11754e-007
Heightened Def Con from 1.11754e-007 +++++++to 1.11754e-007
Heightened Def Con from 1.11754e-007 +++++++to 1.11754e-007
Heightened Def Con from 1.11754e-007 +++++++to 1.11754e-007
Heightened Def Con from 1.11754e-007 +++++++to 1.11754e-007
Heightened Def Con from 1.11754e-007 +++++++to 1.11754e-007
Heightened Def Con from 1.11754e-007 +++++++to 1.11754e-007
Heightened Def Con from 1.11754e-007 +++++++to 1.11754e-007
Heightened Def Con from 1.11754e-007 +++++++to 1.11754e-007
Heightened Def Con from 1.11754e-007 +++++++to 1.11754e-007
Heightened Def Con from 1.11754e-007 +++++++to 1.11754e-007
Heightened Def Con from 1.11754e-007 +++++++to 1.11754e-007
Heightened Def Con from 1.11754e-007 +++++++to 1.11754e-007
Heightened Def Con from 1.11754e-007 +++++++to 1.11754e-007
Heightened Def Con from 1.11754e-007 +++++++to 1.11754e-007
Heightened Def Con from 1.11754e-007 +++++++to 1.11754e-007
Heightened Def Con from 1.11754e-007 +++++++to 1.11754e-007
Heightened Def Con from 1.11754e-007 +++++++to 1.11754e-007
Heightened Def Con from 1.11754e-007 +++++++to 1.11754e-007
Heightened Def Con from 1.11754e-007 +++++++to 1.11754e-007
Heightened Def Con from 1.11754e-007 +++++++to 1.11754e-007
Heightened Def Con from 1.11754e-007 +++++++to 1.11754e-007
Heightened Def Con from 1.11754e-007 +++++++to 1.11754e-007
Heightened Def Con from 1.11754e-007 +++++++to 1.11754e-007
Heightened Def Con from 1.11754e-007 +++++++to 1.11754e-007
Heightened Def Con from 1.11754e-007 +++++++to 1.11754e-007
Heightened Def Con from 1.11754e-007 +++++++to 1.11754e-007
Heightened Def Con from 1.11754e-007 +++++++to 1.11754e-007
Heightened Def Con from 1.11754e-007 +++++++to 1.11754e-007
Heightened Def Con from 1.11754e-007 +++++++to 1.11754e-007
Heightened Def Con from 1.11754e-007 +++++++to 1.11754e-007
Heightened Def Con from 1.11754e-007 +++++++to 1.11754e-007
Heightened Def Con from 1.11754e-007 +++++++to 1.11754e-007
Heightened Def Con from 1.11754e-007 +++++++to 1.11754e-007
Heightened Def Con from 1.11754e-007 +++++++to 1.11754e-007
Heightened Def Con from 1.11754e-007 +++++++to 1.11754e-007
Heightened Def Con from 1.11754e-007 +++++++to 1.11754e-007
Heightened Def Con from 1.11754e-007 +++++++to 1.11754e-007
Heightened Def Con from 1.11754e-007 +++++++to 1.11754e-007
Heightened Def Con from 1.11754e-007 +++++++to 1.11754e-007
Heightened Def Con from 1.11754e-007 +++++++to 1.11754e-007
Heightened Def Con from 1.11754e-007 +++++++to 1.11754e-007
Heightened Def Con from 1.11754e-007 +++++++to 1.11754e-007
Heightened Def Con from 1.11754e-007 +++++++to 1.11754e-007
Heightened Def Con from 1.11754e-007 +++++++to 1.11754e-007
Heightened Def Con from 1.11754e-007 +++++++to 1.11754e-007
Heightened Def Con from 1.11754e-007 +++++++to 1.11754e-007
Heightened Def Con from 1.11754e-007 +++++++to 1.11754e-007
Heightened Def Con from 1.11754e-007 +++++++to 1.11754e-007
Heightened Def Con from 1.11754e-007 +++++++to 1.11754e-007
Heightened Def Con from 1.11754e-007 +++++++to 1.11754e-007
Heightened Def Con from 1.11754e-007 +++++++to 1.11754e-007
Heightened Def Con from 1.11754e-007 +++++++to 1.11754e-007
Heightened Def Con from 1.11754e-007 +++++++to 1.11754e-007
Heightened Def Con from 1.11754e-007 +++++++to 1.11754e-007
Heightened Def Con from 1.11754e-007 +++++++to 1.11754e-007
Heightened Def Con from 1.11754e-007 +++++++to 1.11754e-007
Heightened Def Con from 1.11754e-007 +++++++to 1.11754e-007
Heightened Def Con from 1.11754e-007 +++++++to 1.11754e-007
Heightened Def Con from 1.11754e-007 +++++++to 1.11754e-007
Heightened Def Con from 1.11754e-007 +++++++to 1.11754e-007
Heightened Def Con from 1.11754e-007 +++++++to 1.11754e-007
Heightened Def Con from 1.11754e-007 +++++++to 1.11754e-007
Heightened Def Con from 1.11754e-007 +++++++to 1.11754e-007
Heightened Def Con from 1.11754e-007 +++++++to 1.11754e-007
Heightened Def Con from 1.11754e-007 +++++++to 1.11754e-007
Heightened Def Con from 1.11754e-007 +++++++to 1.11754e-007
Heightened Def Con from 1.11754e-007 ++++++++to 1.11754e-007
Heightened Def Con from 1.11754e-007 ++++++++to 1.11754e-007
Heightened Def Con from 1.11754e-007 ++++++++to 1.11754e-007
Heightened Def Con from 1.11754e-007 ++++++++to 1.11754e-007
Heightened Def Con from 1.11754e-007 ++++++++to 1.11754e-007
Heightened Def Con from 1.11754e-007 ++++++++to 1.11754e-007
Heightened Def Con from 1.11754e-007 ++++++++to 1.11754e-007
Heightened Def Con from 1.11754e-007 ++++++++to 1.11754e-007
Heightened Def Con from 1.11754e-007 ++++++++to 1.11754e-007
Heightened Def Con from 1.11754e-007 ++++++++to 1.11754e-007
Heightened Def Con from 1.11754e-007 ++++++++to 1.11754e-007
Heightened Def Con from 1.11754e-007 ++++++++to 1.11754e-007
Heightened Def Con from 1.11754e-007 ++++++++to 1.11754e-007
Heightened Def Con from 1.11754e-007 ++++++++to 1.11754e-007
Heightened Def Con from 1.11754e-007 ++++++++to 1.11754e-007
Heightened Def Con from 1.11754e-007 ++++++++to 1.11754e-007
Heightened Def Con from 1.11754e-007 ++++++++to 1.11754e-007
Heightened Def Con from 1.11754e-007 ++++++++to 1.11754e-007
Heightened Def Con from 1.11754e-007 ++++++++to 1.11754e-007
Heightened Def Con from 1.11754e-007 ++++++++to 1.11754e-007
Heightened Def Con from 1.11754e-007 ++++++++to 1.11754e-007
Heightened Def Con from 1.11754e-007 ++++++++to 1.11754e-007
Heightened Def Con from 1.11754e-007 ++++++++to 1.11754e-007
Heightened Def Con from 1.11754e-007 ++++++++to 1.11754e-007
Heightened Def Con from 1.11754e-007 ++++++++to 1.11754e-007
Heightened Def Con from 1.11754e-007 ++++++++to 1.11754e-007
Heightened Def Con from 1.11754e-007 ++++++++to 1.11754e-007
Heightened Def Con from 1.11754e-007 ++++++++to 1.11754e-007
Heightened Def Con from 1.11754e-007 ++++++++to 1.11754e-007
Heightened Def Con from 1.11754e-007 ++++++++to 1.11754e-007
Heightened Def Con from 1.11754e-007 ++++++++to 1.11754e-007
Heightened Def Con from 1.11754e-007 ++++++++to 1.11754e-007
Heightened Def Con from 1.11754e-007 ++++++++to 1.11754e-007
Heightened Def Con from 1.11754e-007 ++++++++to 1.11754e-007
Heightened Def Con from 1.11754e-007 ++++++++to 1.11754e-007
Heightened Def Con from 1.11754e-007 ++++++++to 1.11754e-007
Heightened Def Con from 1.11754e-007 ++++++++to 1.11754e-007
Heightened Def Con from 1.11754e-007 ++++++++to 1.11754e-007
Heightened Def Con from 1.11754e-007 ++++++++to 1.11754e-007
Heightened Def Con from 1.11754e-007 ++++++++to 1.11754e-007
Heightened Def Con from 1.11754e-007 ++++++++to 1.11754e-007
Heightened Def Con from 1.11754e-007 ++++++++to 1.11754e-007
Heightened Def Con from 1.11754e-007 ++++++++to 1.11754e-007
Heightened Def Con from 1.11754e-007 ++++++++to 1.11754e-007
Heightened Def Con from 1.11754e-007 ++++++++to 1.11754e-007
Heightened Def Con from 1.11754e-007 ++++++++to 1.11754e-007
Heightened Def Con from 1.11754e-007 ++++++++to 1.11754e-007
Heightened Def Con from 1.11754e-007 ++++++++to 1.11754e-007
Heightened Def Con from 1.11754e-007 ++++++++to 1.11754e-007
Heightened Def Con from 1.11754e-007 ++++++++to 1.11754e-007
Heightened Def Con from 1.11754e-007 ++++++++to 1.11754e-007
Heightened Def Con from 1.11754e-007 ++++++++to 1.11754e-007
Heightened Def Con from 1.11754e-007 ++++++++to 1.11754e-007
Heightened Def Con from 1.11754e-007 ++++++++to 1.11754e-007
Heightened Def Con from 1.11754e-007 ++++++++to 1.11754e-007
Heightened Def Con from 1.11754e-007 ++++++++to 1.11754e-007
Heightened Def Con from 1.11754e-007 ++++++++to 1.11754e-007
Heightened Def Con from 1.11754e-007 ++++++++to 1.11754e-007
Heightened Def Con from 1.11754e-007 ++++++++to 1.11754e-007
Heightened Def Con from 1.11754e-007 ++++++++to 1.11754e-007
Heightened Def Con from 1.11754e-007 ++++++++to 1.11754e-007
Heightened Def Con from 1.11754e-007 ++++++++to 1.11754e-007
Heightened Def Con from 1.11754e-007 ++++++++to 1.11754e-007
Heightened Def Con from 1.11754e-007 ++++++++to 1.11754e-007
Heightened Def Con from 1.11754e-007 ++++++++to 1.11754e-007
Heightened Def Con from 1.11754e-007 ++++++++to 1.11754e-007
Heightened Def Con from 1.11754e-007 ++++++++to 1.11754e-007
Heightened Def Con from 1.11754e-007 ++++++++to 1.11754e-007
Heightened Def Con from 1.11754e-007 ++++++++to 1.11754e-007
Heightened Def Con from 1.11754e-007 ++++++++to 1.11754e-007
Heightened Def Con from 1.11754e-007 ++++++++to 1.11754e-007
Heightened Def Con from 1.11754e-007 ++++++++to 1.11754e-007
Heightened Def Con from 1.11754e-007 ++++++++to 1.11754e-007
Heightened Def Con from 1.11754e-007 ++++++++to 1.11754e-007
Heightened Def Con from 1.11754e-007 ++++++++to 1.11754e-007
Heightened Def Con from 1.11754e-007 ++++++++to 1.11754e-007
Heightened Def Con from 1.11754e-007 ++++++++to 1.11754e-007
Heightened Def Con from 1.11754e-007 ++++++++to 1.11754e-007
Heightened Def Con from 1.11754e-007 ++++++++to 1.11754e-007
Heightened Def Con from 1.11754e-007 ++++++++to 1.11754e-007
Heightened Def Con from 1.11754e-007 ++++++++to 1.11754e-007
Heightened Def Con from 1.11754e-007 ++++++++to 1.11754e-007
Heightened Def Con from 1.11754e-007 ++++++++to 1.11754e-007
Heightened Def Con from 1.11754e-007 ++++++++to 1.11754e-007
Heightened Def Con from 1.11754e-007 ++++++++to 1.11754e-007
Heightened Def Con from 1.11754e-007 ++++++++to 1.11754e-007
Heightened Def Con from 1.11754e-007 ++++++++to 1.11754e-007
Heightened Def Con from 1.11754e-007 ++++++++to 1.11754e-007
Heightened Def Con from 1.11754e-007 ++++++++to 1.11754e-007
Heightened Def Con from 1.11754e-007 ++++++++to 1.11754e-007
Heightened Def Con from 1.11754e-007 ++++++++to 1.11754e-007
Heightened Def Con from 1.11754e-007 ++++++++to 1.11754e-007
Heightened Def Con from 1.11754e-007 ++++++++to 1.11754e-007
Heightened Def Con from 1.11754e-007 ++++++++to 1.11754e-007
Heightened Def Con from 1.11754e-007 ++++++++to 1.11754e-007
Heightened Def Con from 1.11754e-007 ++++++++to 1.11754e-007
Heightened Def Con from 1.11754e-007 ++++++++to 1.11754e-007
Heightened Def Con from 1.11754e-007 ++++++++to 1.11754e-007
Heightened Def Con from 1.11754e-007 ++++++++to 1.11754e-007
Heightened Def Con from 1.11754e-007 ++++++++to 1.11754e-007
Heightened Def Con from 1.11754e-007 ++++++++to 1.11754e-007
Heightened Def Con from 1.11754e-007 ++++++++to 1.11754e-007
Heightened Def Con from 1.11754e-007 ++++++++to 1.11754e-007
Heightened Def Con from 1.11754e-007 ++++++++to 1.11754e-007
Heightened Def Con from 1.11754e-007 ++++++++to 1.11754e-007
Heightened Def Con from 1.11754e-007 ++++++++to 1.11754e-007
Heightened Def Con from 1.11754e-007 ++++++++to 1.11754e-007
Heightened Def Con from 1.11754e-007 ++++++++to 1.11754e-007
Heightened Def Con from 1.11754e-007 ++++++++to 1.11754e-007
Heightened Def Con from 1.11754e-007 ++++++++to 1.11754e-007
Heightened Def Con from 1.11754e-007 ++++++++to 1.11754e-007
Heightened Def Con from 1.11754e-007 ++++++++to 1.11754e-007
Heightened Def Con from 1.11754e-007 +++++++++to 1.11754e-007
Heightened Def Con from 1.11754e-007 +++++++++to 1.11754e-007
Heightened Def Con from 1.11754e-007 +++++++++to 1.11754e-007
Heightened Def Con from 1.11754e-007 +++++++++to 1.11754e-007
Heightened Def Con from 1.11754e-007 +++++++++to 1.11754e-007
Heightened Def Con from 1.11754e-007 +++++++++to 1.11754e-007
Heightened Def Con from 1.11754e-007 +++++++++to 1.11754e-007
Heightened Def Con from 1.11754e-007 +++++++++to 1.11754e-007
Heightened Def Con from 1.11754e-007 +++++++++to 1.11754e-007
Heightened Def Con from 1.11754e-007 +++++++++to 1.11754e-007
Heightened Def Con from 1.11754e-007 +++++++++to 1.11754e-007
Heightened Def Con from 1.11754e-007 +++++++++to 1.11754e-007
Heightened Def Con from 1.11754e-007 +++++++++to 1.11754e-007
Heightened Def Con from 1.11754e-007 +++++++++to 1.11754e-007
Heightened Def Con from 1.11754e-007 +++++++++to 1.11754e-007
Heightened Def Con from 1.11754e-007 +++++++++to 1.11754e-007
Heightened Def Con from 1.11754e-007 +++++++++to 1.11754e-007
Heightened Def Con from 1.11754e-007 +++++++++to 1.11754e-007
Heightened Def Con from 1.11754e-007 +++++++++to 1.11754e-007
Heightened Def Con from 1.11754e-007 +++++++++to 1.11754e-007
Heightened Def Con from 1.11754e-007 +++++++++to 1.11754e-007
Heightened Def Con from 1.11754e-007 +++++++++to 1.11754e-007
Heightened Def Con from 1.11754e-007 +++++++++to 1.11754e-007
Heightened Def Con from 1.11754e-007 +++++++++to 1.11754e-007
Heightened Def Con from 1.11754e-007 +++++++++to 1.11754e-007
Heightened Def Con from 1.11754e-007 +++++++++to 1.11754e-007
Heightened Def Con from 1.11754e-007 +++++++++to 1.11754e-007
Heightened Def Con from 1.11754e-007 +++++++++to 1.11754e-007
Heightened Def Con from 1.11754e-007 +++++++++to 1.11754e-007
Heightened Def Con from 1.11754e-007 +++++++++to 1.11754e-007
Heightened Def Con from 1.11754e-007 +++++++++to 1.11754e-007
Heightened Def Con from 1.11754e-007 +++++++++to 1.11754e-007
Heightened Def Con from 1.11754e-007 +++++++++to 1.11754e-007
Heightened Def Con from 1.11754e-007 +++++++++to 1.11754e-007
Heightened Def Con from 1.11754e-007 +++++++++to 1.11754e-007
Heightened Def Con from 1.11754e-007 +++++++++to 1.11754e-007
Heightened Def Con from 1.11754e-007 +++++++++to 1.11754e-007
Heightened Def Con from 1.11754e-007 +++++++++to 1.11754e-007
Heightened Def Con from 1.11754e-007 +++++++++to 1.11754e-007
Heightened Def Con from 1.11754e-007 +++++++++to 1.11754e-007
Heightened Def Con from 1.11754e-007 +++++++++to 1.11754e-007
Heightened Def Con from 1.11754e-007 +++++++++to 1.11754e-007
Heightened Def Con from 1.11754e-007 +++++++++to 1.11754e-007
Heightened Def Con from 1.11754e-007 +++++++++to 1.11754e-007
Heightened Def Con from 1.11754e-007 +++++++++to 1.11754e-007
Heightened Def Con from 1.11754e-007 +++++++++to 1.11754e-007
Heightened Def Con from 1.11754e-007 +++++++++to 1.11754e-007
Heightened Def Con from 1.11754e-007 +++++++++to 1.11754e-007
Heightened Def Con from 1.11754e-007 +++++++++to 1.11754e-007
Heightened Def Con from 1.11754e-007 +++++++++to 1.11754e-007
Heightened Def Con from 1.11754e-007 +++++++++to 1.11754e-007
Heightened Def Con from 1.11754e-007 +++++++++to 1.11754e-007
Heightened Def Con from 1.11754e-007 +++++++++to 1.11754e-007
Heightened Def Con from 1.11754e-007 +++++++++to 1.11754e-007
Heightened Def Con from 1.11754e-007 +++++++++to 1.11754e-007
Heightened Def Con from 1.11754e-007 +++++++++to 1.11754e-007
Heightened Def Con from 1.11754e-007 +++++++++to 1.11754e-007
Heightened Def Con from 1.11754e-007 +++++++++to 1.11754e-007
Heightened Def Con from 1.11754e-007 +++++++++to 1.11754e-007
Heightened Def Con from 1.11754e-007 +++++++++to 1.11754e-007
Heightened Def Con from 1.11754e-007 +++++++++to 1.11754e-007
Heightened Def Con from 1.11754e-007 +++++++++to 1.11754e-007
Heightened Def Con from 1.11754e-007 +++++++++to 1.11754e-007
Heightened Def Con from 1.11754e-007 +++++++++to 1.11754e-007
Heightened Def Con from 1.11754e-007 +++++++++to 1.11754e-007
Heightened Def Con from 1.11754e-007 +++++++++to 1.11754e-007
Heightened Def Con from 1.11754e-007 +++++++++to 1.11754e-007
Heightened Def Con from 1.11754e-007 +++++++++to 1.11754e-007
Heightened Def Con from 1.11754e-007 +++++++++to 1.11754e-007
Heightened Def Con from 1.11754e-007 +++++++++to 1.11754e-007
Heightened Def Con from 1.11754e-007 +++++++++to 1.11754e-007
Heightened Def Con from 1.11754e-007 +++++++++to 1.11754e-007
Heightened Def Con from 1.11754e-007 +++++++++to 1.11754e-007
Heightened Def Con from 1.11754e-007 +++++++++to 1.11754e-007
Heightened Def Con from 1.11754e-007 +++++++++to 1.11754e-007
Heightened Def Con from 1.11754e-007 +++++++++to 1.11754e-007
Heightened Def Con from 1.11754e-007 +++++++++to 1.11754e-007
Heightened Def Con from 1.11754e-007 +++++++++to 1.11754e-007
Heightened Def Con from 1.11754e-007 +++++++++to 1.11754e-007
Heightened Def Con from 1.11754e-007 +++++++++to 1.11754e-007
Heightened Def Con from 1.11754e-007 +++++++++to 1.11754e-007
Heightened Def Con from 1.11754e-007 +++++++++to 1.11754e-007
Heightened Def Con from 1.11754e-007 +++++++++to 1.11754e-007
Heightened Def Con from 1.11754e-007 +++++++++to 1.11754e-007
Heightened Def Con from 1.11754e-007 +++++++++to 1.11754e-007
Heightened Def Con from 1.11754e-007 +++++++++to 1.11754e-007
Heightened Def Con from 1.11754e-007 +++++++++to 1.11754e-007
Heightened Def Con from 1.11754e-007 +++++++++to 1.11754e-007
Heightened Def Con from 1.11754e-007 +++++++++to 1.11754e-007
Heightened Def Con from 1.11754e-007 +++++++++to 1.11754e-007
Heightened Def Con from 1.11754e-007 +++++++++to 1.11754e-007
Heightened Def Con from 1.11754e-007 +++++++++to 1.11754e-007
Heightened Def Con from 1.11754e-007 +++++++++to 1.11754e-007
Heightened Def Con from 1.11754e-007 +++++++++to 1.11754e-007
Heightened Def Con from 1.11754e-007 +++++++++to 1.11754e-007
Heightened Def Con from 1.11754e-007 +++++++++to 1.11754e-007
Heightened Def Con from 1.11754e-007 +++++++++to 1.11754e-007
Heightened Def Con from 1.11754e-007 +++++++++to 1.11754e-007
Heightened Def Con from 1.11754e-007 +++++++++to 1.11754e-007
Heightened Def Con from 1.11754e-007 +++++++++to 1.11754e-007
Heightened Def Con from 1.11754e-007 +++++++++to 1.11754e-007
Heightened Def Con from 1.11754e-007 +++++++++to 1.11754e-007
Heightened Def Con from 1.11754e-007 +++++++++to 1.11754e-007
Heightened Def Con from 1.11754e-007 +++++++++to 1.11754e-007
Heightened Def Con from 1.11754e-007 +++++++++to 1.11754e-007
Heightened Def Con from 1.11754e-007 +++++++++to 1.11754e-007
Heightened Def Con from 1.11754e-007 +++++++++to 1.11754e-007
Heightened Def Con from 1.11754e-007 +++++++++to 1.11754e-007
Heightened Def Con from 1.11754e-007 +++++++++to 1.11754e-007
Heightened Def Con from 1.11754e-007 +++++++++to 1.11754e-007
Heightened Def Con from 1.11754e-007 +++++++++to 1.11754e-007
Heightened Def Con from 1.11754e-007 +++++++++to 1.11754e-007
Heightened Def Con from 1.11754e-007 +++++++++to 1.11754e-007
Heightened Def Con from 1.11754e-007 +++++++++to 1.11754e-007
Heightened Def Con from 1.11754e-007 +++++++++to 1.11754e-007
Heightened Def Con from 1.11754e-007 +++++++++to 1.11754e-007
Heightened Def Con from 1.11754e-007 +++++++++to 1.11754e-007
Heightened Def Con from 1.11754e-007 +++++++++to 1.11754e-007
Heightened Def Con from 1.11754e-007 +++++++++to 1.11754e-007
Heightened Def Con from 1.11754e-007 +++++++++to 1.11754e-007
Heightened Def Con from 1.11754e-007 +++++++++to 1.11754e-007
Heightened Def Con from 1.11754e-007 +++++++++to 1.11754e-007
Heightened Def Con from 1.11754e-007 +++++++++to 1.11754e-007
Heightened Def Con from 1.11754e-007 +++++++++to 1.11754e-007
Heightened Def Con from 1.11754e-007 +++++++++to 1.11754e-007
Heightened Def Con from 1.11754e-007 +++++++++to 1.11754e-007
Heightened Def Con from 1.11754e-007 +++++++++to 1.11754e-007
Heightened Def Con from 1.11754e-007 +++++++++to 1.11754e-007
Heightened Def Con from 1.11754e-007 +++++++++to 1.11754e-007
Heightened Def Con from 1.11754e-007 +++++++++to 1.11754e-007
Heightened Def Con from 1.11754e-007 +++++++++to 1.11754e-007
Heightened Def Con from 1.11754e-007 +++++++++to 1.11754e-007
Heightened Def Con from 1.11754e-007 +++++++++to 1.11754e-007
Heightened Def Con from 1.11754e-007 +++++++++to 1.11754e-007
Heightened Def Con from 1.11754e-007 +++++++++to 1.11754e-007
Heightened Def Con from 1.11754e-007 +++++++++to 1.11754e-007
Heightened Def Con from 1.11754e-007 +++++++++to 1.11754e-007
Heightened Def Con from 1.11754e-007 +++++++++to 1.11754e-007
Heightened Def Con from 1.11754e-007 +++++++++to 1.11754e-007
Heightened Def Con from 1.11754e-007 +++++++++to 1.11754e-007
Heightened Def Con from 1.11754e-007 +++++++++to 1.11754e-007
Heightened Def Con from 1.11754e-007 +++++++++to 1.11754e-007
Heightened Def Con from 1.11754e-007 +++++++++to 1.11754e-007
Heightened Def Con from 1.11754e-007 +++++++++to 1.11754e-007
Heightened Def Con from 1.11754e-007 +++++++++to 1.11754e-007
Heightened Def Con from 1.11754e-007 +++++++++to 1.11754e-007
Heightened Def Con from 1.11754e-007 +++++++++to 1.11754e-007
Heightened Def Con from 1.11754e-007 +++++++++to 1.11754e-007
Heightened Def Con from 1.11754e-007 +++++++++to 1.11754e-007
Heightened Def Con from 1.11754e-007 +++++++++to 1.11754e-007
Heightened Def Con from 1.11754e-007 +++++++++to 1.11754e-007
Heightened Def Con from 1.11754e-007 +++++++++to 1.11754e-007
Heightened Def Con from 1.11754e-007 +++++++++to 1.11754e-007
Heightened Def Con from 1.11754e-007 +++++++++to 1.11754e-007
Heightened Def Con from 1.11754e-007 +++++++++to 1.11754e-007
Heightened Def Con from 1.11754e-007 +++++++++to 1.11754e-007
Heightened Def Con from 1.11754e-007 +++++++++to 1.11754e-007
Heightened Def Con from 1.11754e-007 +++++++++to 1.11754e-007
Heightened Def Con from 1.11754e-007 +++++++++to 1.11754e-007
Heightened Def Con from 1.11754e-007 +++++++++to 1.11754e-007
Heightened Def Con from 1.11754e-007 +++++++++to 1.11754e-007
Heightened Def Con from 1.11754e-007 +++++++++to 1.11754e-007
Heightened Def Con from 1.11754e-007 +++++++++to 1.11754e-007
Heightened Def Con from 1.11754e-007 +++++++++to 1.11754e-007
Heightened Def Con from 1.11754e-007 +++++++++to 1.11754e-007
Heightened Def Con from 1.11754e-007 +++++++++to 1.11754e-007
Heightened Def Con from 1.11754e-007 +++++++++to 1.11754e-007
Heightened Def Con from 1.11754e-007 +++++++++to 1.11754e-007
Heightened Def Con from 1.11754e-007 +++++++++to 1.11754e-007
Heightened Def Con from 1.11754e-007 +++++++++to 1.11754e-007
Heightened Def Con from 1.11754e-007 +++++++++to 1.11754e-007
Heightened Def Con from 1.11754e-007 +++++++++to 1.11754e-007
Heightened Def Con from 1.11754e-007 +++++++++to 1.11754e-007
Heightened Def Con from 1.11754e-007 +++++++++to 1.11754e-007
Heightened Def Con from 1.11754e-007 +++++++++to 1.11754e-007
Heightened Def Con from 1.11754e-007 +++++++++to 1.11754e-007
Heightened Def Con from 1.11754e-007 ++++++++++to 1.11754e-007
Heightened Def Con from 1.11754e-007 ++++++++++to 1.11754e-007
Heightened Def Con from 1.11754e-007 ++++++++++to 1.11754e-007
Heightened Def Con from 1.11754e-007 ++++++++++to 1.11754e-007
Heightened Def Con from 1.11754e-007 ++++++++++to 1.11754e-007
Heightened Def Con from 1.11754e-007 ++++++++++to 1.11754e-007
Heightened Def Con from 1.11754e-007 ++++++++++to 1.11754e-007
Heightened Def Con from 1.11754e-007 ++++++++++to 1.11754e-007
Heightened Def Con from 1.11754e-007 ++++++++++to 1.11754e-007
Heightened Def Con from 1.11754e-007 ++++++++++to 1.11754e-007
Heightened Def Con from 1.11754e-007 ++++++++++to 1.11754e-007
Heightened Def Con from 1.11754e-007 ++++++++++to 1.11754e-007
Heightened Def Con from 1.11754e-007 ++++++++++to 1.11754e-007
Heightened Def Con from 1.11754e-007 ++++++++++to 1.11754e-007
Heightened Def Con from 1.11754e-007 ++++++++++to 1.11754e-007
Heightened Def Con from 1.11754e-007 ++++++++++to 1.11754e-007
Heightened Def Con from 1.11754e-007 ++++++++++to 1.11754e-007
Heightened Def Con from 1.11754e-007 ++++++++++to 1.11754e-007
Heightened Def Con from 1.11754e-007 ++++++++++to 1.11754e-007
Heightened Def Con from 1.11754e-007 ++++++++++to 1.11754e-007
Heightened Def Con from 1.11754e-007 ++++++++++to 1.11754e-007
Heightened Def Con from 1.11754e-007 ++++++++++to 1.11754e-007
Heightened Def Con from 1.11754e-007 ++++++++++to 1.11754e-007
Heightened Def Con from 1.11754e-007 ++++++++++to 1.11754e-007
Heightened Def Con from 1.11754e-007 ++++++++++to 1.11754e-007
Heightened Def Con from 1.11754e-007 ++++++++++to 1.11754e-007
Heightened Def Con from 1.11754e-007 ++++++++++to 1.11754e-007
Heightened Def Con from 1.11754e-007 ++++++++++to 1.11754e-007
Heightened Def Con from 1.11754e-007 ++++++++++to 1.11754e-007
Heightened Def Con from 1.11754e-007 ++++++++++to 1.11754e-007
Heightened Def Con from 1.11754e-007 ++++++++++to 1.11754e-007
Heightened Def Con from 1.11754e-007 ++++++++++to 1.11754e-007
Heightened Def Con from 1.11754e-007 ++++++++++to 1.11754e-007
Heightened Def Con from 1.11754e-007 ++++++++++to 1.11754e-007
Heightened Def Con from 1.11754e-007 ++++++++++to 1.11754e-007
Heightened Def Con from 1.11754e-007 ++++++++++to 1.11754e-007
Heightened Def Con from 1.11754e-007 ++++++++++to 1.11754e-007
Heightened Def Con from 1.11754e-007 ++++++++++to 1.11754e-007
Heightened Def Con from 1.11754e-007 ++++++++++to 1.11754e-007
Heightened Def Con from 1.11754e-007 ++++++++++to 1.11754e-007
Heightened Def Con from 1.11754e-007 ++++++++++to 1.11754e-007
Heightened Def Con from 1.11754e-007 ++++++++++to 1.11754e-007
Heightened Def Con from 1.11754e-007 ++++++++++to 1.11754e-007
Heightened Def Con from 1.11754e-007 ++++++++++to 1.11754e-007
Heightened Def Con from 1.11754e-007 ++++++++++to 1.11754e-007
Heightened Def Con from 1.11754e-007 ++++++++++to 1.11754e-007
Heightened Def Con from 1.11754e-007 ++++++++++to 1.11754e-007
Heightened Def Con from 1.11754e-007 ++++++++++to 1.11754e-007
Heightened Def Con from 1.11754e-007 ++++++++++to 1.11754e-007
Heightened Def Con from 1.11754e-007 ++++++++++to 1.11754e-007
Heightened Def Con from 1.11754e-007 ++++++++++to 1.11754e-007
Heightened Def Con from 1.11754e-007 ++++++++++to 1.11754e-007
Heightened Def Con from 1.11754e-007 ++++++++++to 1.11754e-007
Heightened Def Con from 1.11754e-007 ++++++++++to 1.11754e-007
Heightened Def Con from 1.11754e-007 ++++++++++to 1.11754e-007
Heightened Def Con from 1.11754e-007 ++++++++++to 1.11754e-007
Heightened Def Con from 1.11754e-007 ++++++++++to 1.11754e-007
Heightened Def Con from 1.11754e-007 ++++++++++to 1.11754e-007
Heightened Def Con from 1.11754e-007 ++++++++++to 1.11754e-007
Heightened Def Con from 1.11754e-007 ++++++++++to 1.11754e-007
Heightened Def Con from 1.11754e-007 ++++++++++to 1.11754e-007
Heightened Def Con from 1.11754e-007 ++++++++++to 1.11754e-007
Heightened Def Con from 1.11754e-007 ++++++++++to 1.11754e-007
Heightened Def Con from 1.11754e-007 ++++++++++to 1.11755e-007
Heightened Def Con from 1.11755e-007 ++++++++++to 1.11755e-007
Heightened Def Con from 1.11755e-007 ++++++++++to 1.11755e-007
Heightened Def Con from 1.11755e-007 ++++++++++to 1.11755e-007
Heightened Def Con from 1.11755e-007 ++++++++++to 1.11755e-007
Heightened Def Con from 1.11755e-007 ++++++++++to 1.11755e-007
Heightened Def Con from 1.11755e-007 ++++++++++to 1.11755e-007
Heightened Def Con from 1.11755e-007 ++++++++++to 1.11755e-007
Heightened Def Con from 1.11755e-007 ++++++++++to 1.11755e-007
Heightened Def Con from 1.11755e-007 ++++++++++to 1.11755e-007
Heightened Def Con from 1.11755e-007 ++++++++++to 1.11755e-007
Heightened Def Con from 1.11755e-007 ++++++++++to 1.11755e-007
Heightened Def Con from 1.11755e-007 ++++++++++to 1.11755e-007
Heightened Def Con from 1.11755e-007 ++++++++++to 1.11755e-007
Heightened Def Con from 1.11755e-007 ++++++++++to 1.11755e-007
Heightened Def Con from 1.11755e-007 ++++++++++to 1.11755e-007
Heightened Def Con from 1.11755e-007 ++++++++++to 1.11755e-007
Heightened Def Con from 1.11755e-007 ++++++++++to 1.11755e-007
Heightened Def Con from 1.11755e-007 ++++++++++to 1.11755e-007
Heightened Def Con from 1.11755e-007 ++++++++++to 1.11755e-007
Heightened Def Con from 1.11755e-007 ++++++++++to 1.11755e-007
Heightened Def Con from 1.11755e-007 ++++++++++to 1.11755e-007
Heightened Def Con from 1.11755e-007 ++++++++++to 1.11755e-007
Heightened Def Con from 1.11755e-007 ++++++++++to 1.11755e-007
Heightened Def Con from 1.11755e-007 ++++++++++to 1.11755e-007
Heightened Def Con from 1.11755e-007 ++++++++++to 1.11755e-007
Heightened Def Con from 1.11755e-007 ++++++++++to 1.11755e-007
Heightened Def Con from 1.11755e-007 ++++++++++to 1.11755e-007
Heightened Def Con from 1.11755e-007 ++++++++++to 1.11755e-007
Heightened Def Con from 1.11755e-007 ++++++++++to 1.11755e-007
Heightened Def Con from 1.11755e-007 ++++++++++to 1.11755e-007
Heightened Def Con from 1.11755e-007 ++++++++++to 1.11755e-007
Heightened Def Con from 1.11755e-007 ++++++++++to 1.11755e-007
Heightened Def Con from 1.11755e-007 ++++++++++to 1.11755e-007
Heightened Def Con from 1.11755e-007 ++++++++++to 1.11755e-007
Heightened Def Con from 1.11755e-007 ++++++++++to 1.11755e-007
Heightened Def Con from 1.11755e-007 ++++++++++to 1.11755e-007
Heightened Def Con from 1.11755e-007 ++++++++++to 1.11755e-007
Heightened Def Con from 1.11755e-007 ++++++++++to 1.11755e-007
Heightened Def Con from 1.11755e-007 ++++++++++to 1.11755e-007
Heightened Def Con from 1.11755e-007 ++++++++++to 1.11755e-007
Heightened Def Con from 1.11755e-007 ++++++++++to 1.11755e-007
Heightened Def Con from 1.11755e-007 ++++++++++to 1.11755e-007
Heightened Def Con from 1.11755e-007 ++++++++++to 1.11755e-007
Heightened Def Con from 1.11755e-007 ++++++++++to 1.11755e-007
Heightened Def Con from 1.11755e-007 ++++++++++to 1.11755e-007
Heightened Def Con from 1.11755e-007 ++++++++++to 1.11755e-007
Heightened Def Con from 1.11755e-007 ++++++++++to 1.11755e-007
Heightened Def Con from 1.11755e-007 ++++++++++to 1.11755e-007
Heightened Def Con from 1.11755e-007 ++++++++++to 1.11755e-007
Heightened Def Con from 1.11755e-007 ++++++++++to 1.11755e-007
Heightened Def Con from 1.11755e-007 ++++++++++to 1.11755e-007
Heightened Def Con from 1.11755e-007 ++++++++++to 1.11755e-007
Heightened Def Con from 1.11755e-007 ++++++++++to 1.11755e-007
Heightened Def Con from 1.11755e-007 ++++++++++to 1.11755e-007
Heightened Def Con from 1.11755e-007 ++++++++++to 1.11755e-007
Heightened Def Con from 1.11755e-007 ++++++++++to 1.11755e-007
Heightened Def Con from 1.11755e-007 ++++++++++to 1.11755e-007
Heightened Def Con from 1.11755e-007 ++++++++++to 1.11755e-007
Heightened Def Con from 1.11755e-007 ++++++++++to 1.11755e-007
Heightened Def Con from 1.11755e-007 ++++++++++to 1.11755e-007
Heightened Def Con from 1.11755e-007 ++++++++++to 1.11755e-007
Heightened Def Con from 1.11755e-007 ++++++++++to 1.11755e-007
Heightened Def Con from 1.11755e-007 ++++++++++to 1.11755e-007
Heightened Def Con from 1.11755e-007 ++++++++++to 1.11755e-007
Heightened Def Con from 1.11755e-007 ++++++++++to 1.11755e-007
Heightened Def Con from 1.11755e-007 ++++++++++to 1.11755e-007
Heightened Def Con from 1.11755e-007 ++++++++++to 1.11755e-007
Heightened Def Con from 1.11755e-007 ++++++++++to 1.11755e-007
Heightened Def Con from 1.11755e-007 ++++++++++to 1.11755e-007
Heightened Def Con from 1.11755e-007 ++++++++++to 1.11755e-007
Heightened Def Con from 1.11755e-007 ++++++++++to 1.11755e-007
Heightened Def Con from 1.11755e-007 ++++++++++to 1.11755e-007
Heightened Def Con from 1.11755e-007 ++++++++++to 1.11755e-007
Heightened Def Con from 1.11755e-007 ++++++++++to 1.11755e-007
Heightened Def Con from 1.11755e-007 ++++++++++to 1.11755e-007
Heightened Def Con from 1.11755e-007 ++++++++++to 1.11755e-007
Heightened Def Con from 1.11755e-007 ++++++++++to 1.11755e-007
Heightened Def Con from 1.11755e-007 ++++++++++to 1.11755e-007
Heightened Def Con from 1.11755e-007 ++++++++++to 1.11755e-007
Heightened Def Con from 1.11755e-007 ++++++++++to 1.11755e-007
Heightened Def Con from 1.11755e-007 ++++++++++to 1.11755e-007
Heightened Def Con from 1.11755e-007 ++++++++++to 1.11755e-007
Heightened Def Con from 1.11755e-007 ++++++++++to 1.11755e-007
Heightened Def Con from 1.11755e-007 ++++++++++to 1.11755e-007
Heightened Def Con from 1.11755e-007 ++++++++++to 1.11755e-007
Heightened Def Con from 1.11755e-007 ++++++++++to 1.11755e-007
Heightened Def Con from 1.11755e-007 ++++++++++to 1.11755e-007
Heightened Def Con from 1.11755e-007 ++++++++++to 1.11755e-007
Heightened Def Con from 1.11755e-007 ++++++++++to 1.11755e-007
Heightened Def Con from 1.11755e-007 ++++++++++to 1.11755e-007
Heightened Def Con from 1.11755e-007 ++++++++++to 1.11755e-007
Heightened Def Con from 1.11755e-007 ++++++++++to 1.11755e-007
Heightened Def Con from 1.11755e-007 ++++++++++to 1.11755e-007
Heightened Def Con from 1.11755e-007 ++++++++++to 1.11755e-007
Heightened Def Con from 1.11755e-007 ++++++++++to 1.11755e-007
Heightened Def Con from 1.11755e-007 ++++++++++to 1.11755e-007
Heightened Def Con from 1.11755e-007 ++++++++++to 1.11755e-007
Heightened Def Con from 1.11755e-007 ++++++++++to 1.11755e-007
Heightened Def Con from 1.11755e-007 ++++++++++to 1.11755e-007
Heightened Def Con from 1.11755e-007 ++++++++++to 1.11755e-007
Heightened Def Con from 1.11755e-007 ++++++++++to 1.11755e-007
Heightened Def Con from 1.11755e-007 ++++++++++to 1.11755e-007
Heightened Def Con from 1.11755e-007 ++++++++++to 1.11755e-007
Heightened Def Con from 1.11755e-007 ++++++++++to 1.11755e-007
Heightened Def Con from 1.11755e-007 ++++++++++to 1.11755e-007
Heightened Def Con from 1.11755e-007 ++++++++++to 1.11755e-007
Heightened Def Con from 1.11755e-007 ++++++++++to 1.11755e-007
Heightened Def Con from 1.11755e-007 ++++++++++to 1.11755e-007
Heightened Def Con from 1.11755e-007 ++++++++++to 1.11755e-007
Heightened Def Con from 1.11755e-007 ++++++++++to 1.11755e-007
Heightened Def Con from 1.11755e-007 ++++++++++to 1.11755e-007
Heightened Def Con from 1.11755e-007 ++++++++++to 1.11755e-007
Heightened Def Con from 1.11755e-007 ++++++++++to 1.11755e-007
Heightened Def Con from 1.11755e-007 ++++++++++to 1.11755e-007
Heightened Def Con from 1.11755e-007 ++++++++++to 1.11755e-007
Heightened Def Con from 1.11755e-007 ++++++++++to 1.11755e-007
Heightened Def Con from 1.11755e-007 ++++++++++to 1.11755e-007
Heightened Def Con from 1.11755e-007 ++++++++++to 1.11755e-007
Heightened Def Con from 1.11755e-007 ++++++++++to 1.11755e-007
Heightened Def Con from 1.11755e-007 ++++++++++to 1.11755e-007
Heightened Def Con from 1.11755e-007 ++++++++++to 1.11755e-007
Heightened Def Con from 1.11755e-007 ++++++++++to 1.11755e-007
Heightened Def Con from 1.11755e-007 ++++++++++to 1.11755e-007
Heightened Def Con from 1.11755e-007 ++++++++++to 1.11755e-007
Heightened Def Con from 1.11755e-007 ++++++++++to 1.11755e-007
Heightened Def Con from 1.11755e-007 ++++++++++to 1.11755e-007
Heightened Def Con from 1.11755e-007 ++++++++++to 1.11755e-007
Heightened Def Con from 1.11755e-007 ++++++++++to 1.11755e-007
Heightened Def Con from 1.11755e-007 ++++++++++to 1.11755e-007
Heightened Def Con from 1.11755e-007 ++++++++++to 1.11755e-007
Heightened Def Con from 1.11755e-007 ++++++++++to 1.11755e-007
Heightened Def Con from 1.11755e-007 ++++++++++to 1.11755e-007
Heightened Def Con from 1.11755e-007 ++++++++++to 1.11755e-007
Heightened Def Con from 1.11755e-007 +++++++++++to 1.11755e-007
Heightened Def Con from 1.11755e-007 +++++++++++to 1.11755e-007
Heightened Def Con from 1.11755e-007 +++++++++++to 1.11755e-007
Heightened Def Con from 1.11755e-007 +++++++++++to 1.11755e-007
Heightened Def Con from 1.11755e-007 +++++++++++to 1.11755e-007
Heightened Def Con from 1.11755e-007 +++++++++++to 1.11755e-007
Heightened Def Con from 1.11755e-007 +++++++++++to 1.11755e-007
Heightened Def Con from 1.11755e-007 +++++++++++to 1.11755e-007
Heightened Def Con from 1.11755e-007 +++++++++++to 1.11755e-007
Heightened Def Con from 1.11755e-007 +++++++++++to 1.11755e-007
Heightened Def Con from 1.11755e-007 +++++++++++to 1.11755e-007
Heightened Def Con from 1.11755e-007 +++++++++++to 1.11755e-007
Heightened Def Con from 1.11755e-007 +++++++++++to 1.11755e-007
Heightened Def Con from 1.11755e-007 +++++++++++to 1.11755e-007
Heightened Def Con from 1.11755e-007 +++++++++++to 1.11755e-007
Heightened Def Con from 1.11755e-007 +++++++++++to 1.11755e-007
Heightened Def Con from 1.11755e-007 +++++++++++to 1.11755e-007
Heightened Def Con from 1.11755e-007 +++++++++++to 1.11755e-007
Heightened Def Con from 1.11755e-007 +++++++++++to 1.11755e-007
Heightened Def Con from 1.11755e-007 +++++++++++to 1.11755e-007
Heightened Def Con from 1.11755e-007 +++++++++++to 1.11755e-007
Heightened Def Con from 1.11755e-007 +++++++++++to 1.11755e-007
Heightened Def Con from 1.11755e-007 +++++++++++to 1.11755e-007
Heightened Def Con from 1.11755e-007 +++++++++++to 1.11755e-007
Heightened Def Con from 1.11755e-007 +++++++++++to 1.11755e-007
Heightened Def Con from 1.11755e-007 +++++++++++to 1.11755e-007
Heightened Def Con from 1.11755e-007 +++++++++++to 1.11755e-007
Heightened Def Con from 1.11755e-007 +++++++++++to 1.11755e-007
Heightened Def Con from 1.11755e-007 +++++++++++to 1.11755e-007
Heightened Def Con from 1.11755e-007 +++++++++++to 1.11755e-007
Heightened Def Con from 1.11755e-007 +++++++++++to 1.11755e-007
Heightened Def Con from 1.11755e-007 +++++++++++to 1.11755e-007
Heightened Def Con from 1.11755e-007 +++++++++++to 1.11755e-007
Heightened Def Con from 1.11755e-007 +++++++++++to 1.11755e-007
Heightened Def Con from 1.11755e-007 +++++++++++to 1.11755e-007
Heightened Def Con from 1.11755e-007 +++++++++++to 1.11755e-007
Heightened Def Con from 1.11755e-007 +++++++++++to 1.11755e-007
Heightened Def Con from 1.11755e-007 +++++++++++to 1.11755e-007
Heightened Def Con from 1.11755e-007 +++++++++++to 1.11755e-007
Heightened Def Con from 1.11755e-007 +++++++++++to 1.11755e-007
Heightened Def Con from 1.11755e-007 +++++++++++to 1.11755e-007
Heightened Def Con from 1.11755e-007 +++++++++++to 1.11755e-007
Heightened Def Con from 1.11755e-007 +++++++++++to 1.11755e-007
Heightened Def Con from 1.11755e-007 +++++++++++to 1.11755e-007
Heightened Def Con from 1.11755e-007 +++++++++++to 1.11755e-007
Heightened Def Con from 1.11755e-007 +++++++++++to 1.11755e-007
Heightened Def Con from 1.11755e-007 +++++++++++to 1.11755e-007
Heightened Def Con from 1.11755e-007 +++++++++++to 1.11755e-007
Heightened Def Con from 1.11755e-007 +++++++++++to 1.11755e-007
Heightened Def Con from 1.11755e-007 +++++++++++to 1.11755e-007
Heightened Def Con from 1.11755e-007 +++++++++++to 1.11755e-007
Heightened Def Con from 1.11755e-007 +++++++++++to 1.11755e-007
Heightened Def Con from 1.11755e-007 +++++++++++to 1.11755e-007
Heightened Def Con from 1.11755e-007 +++++++++++to 1.11755e-007
Heightened Def Con from 1.11755e-007 +++++++++++to 1.11755e-007
Heightened Def Con from 1.11755e-007 +++++++++++to 1.11755e-007
Heightened Def Con from 1.11755e-007 +++++++++++to 1.11755e-007
Heightened Def Con from 1.11755e-007 +++++++++++to 1.11755e-007
Heightened Def Con from 1.11755e-007 +++++++++++to 1.11755e-007
Heightened Def Con from 1.11755e-007 +++++++++++to 1.11755e-007
Heightened Def Con from 1.11755e-007 +++++++++++to 1.11755e-007
Heightened Def Con from 1.11755e-007 +++++++++++to 1.11755e-007
Heightened Def Con from 1.11755e-007 +++++++++++to 1.11755e-007
Heightened Def Con from 1.11755e-007 +++++++++++to 1.11755e-007
Heightened Def Con from 1.11755e-007 +++++++++++to 1.11755e-007
Heightened Def Con from 1.11755e-007 +++++++++++to 1.11755e-007
Heightened Def Con from 1.11755e-007 +++++++++++to 1.11755e-007
Heightened Def Con from 1.11755e-007 +++++++++++to 1.11755e-007
Heightened Def Con from 1.11755e-007 +++++++++++to 1.11755e-007
Heightened Def Con from 1.11755e-007 +++++++++++to 1.11755e-007
Heightened Def Con from 1.11755e-007 +++++++++++to 1.11755e-007
Heightened Def Con from 1.11755e-007 +++++++++++to 1.11755e-007
Heightened Def Con from 1.11755e-007 +++++++++++to 1.11755e-007
Heightened Def Con from 1.11755e-007 +++++++++++to 1.11755e-007
Heightened Def Con from 1.11755e-007 +++++++++++to 1.11755e-007
Heightened Def Con from 1.11755e-007 +++++++++++to 1.11755e-007
Heightened Def Con from 1.11755e-007 +++++++++++to 1.11755e-007
Heightened Def Con from 1.11755e-007 +++++++++++to 1.11755e-007
Heightened Def Con from 1.11755e-007 +++++++++++to 1.11755e-007
Heightened Def Con from 1.11755e-007 +++++++++++to 1.11755e-007
Heightened Def Con from 1.11755e-007 +++++++++++to 1.11755e-007
Heightened Def Con from 1.11755e-007 +++++++++++to 1.11755e-007
Heightened Def Con from 1.11755e-007 +++++++++++to 1.11755e-007
Heightened Def Con from 1.11755e-007 +++++++++++to 1.11755e-007
Heightened Def Con from 1.11755e-007 +++++++++++to 1.11755e-007
Heightened Def Con from 1.11755e-007 +++++++++++to 1.11755e-007
Heightened Def Con from 1.11755e-007 +++++++++++to 1.11755e-007
Heightened Def Con from 1.11755e-007 +++++++++++to 1.11755e-007
Heightened Def Con from 1.11755e-007 +++++++++++to 1.11755e-007
Heightened Def Con from 1.11755e-007 +++++++++++to 1.11755e-007
Heightened Def Con from 1.11755e-007 +++++++++++to 1.11755e-007
Heightened Def Con from 1.11755e-007 +++++++++++to 1.11755e-007
Heightened Def Con from 1.11755e-007 +++++++++++to 1.11755e-007
Heightened Def Con from 1.11755e-007 +++++++++++to 1.11755e-007
Heightened Def Con from 1.11755e-007 +++++++++++to 1.11755e-007
Heightened Def Con from 1.11755e-007 +++++++++++to 1.11755e-007
Heightened Def Con from 1.11755e-007 +++++++++++to 1.11755e-007
Heightened Def Con from 1.11755e-007 +++++++++++to 1.11755e-007
Heightened Def Con from 1.11755e-007 +++++++++++to 1.11755e-007
Heightened Def Con from 1.11755e-007 +++++++++++to 1.11755e-007
Heightened Def Con from 1.11755e-007 +++++++++++to 1.11755e-007
Heightened Def Con from 1.11755e-007 +++++++++++to 1.11755e-007
Heightened Def Con from 1.11755e-007 +++++++++++to 1.11755e-007
Heightened Def Con from 1.11755e-007 +++++++++++to 1.11755e-007
Heightened Def Con from 1.11755e-007 +++++++++++to 1.11755e-007
Heightened Def Con from 1.11755e-007 +++++++++++to 1.11755e-007
Heightened Def Con from 1.11755e-007 +++++++++++to 1.11755e-007
Heightened Def Con from 1.11755e-007 +++++++++++to 1.11755e-007
Heightened Def Con from 1.11755e-007 +++++++++++to 1.11755e-007
Heightened Def Con from 1.11755e-007 +++++++++++to 1.11755e-007
Heightened Def Con from 1.11755e-007 +++++++++++to 1.11755e-007
Heightened Def Con from 1.11755e-007 +++++++++++to 1.11755e-007
Heightened Def Con from 1.11755e-007 +++++++++++to 1.11755e-007
Heightened Def Con from 1.11755e-007 +++++++++++to 1.11755e-007
Heightened Def Con from 1.11755e-007 +++++++++++to 1.11755e-007
Heightened Def Con from 1.11755e-007 +++++++++++to 1.11755e-007
Heightened Def Con from 1.11755e-007 +++++++++++to 1.11755e-007
Heightened Def Con from 1.11755e-007 +++++++++++to 1.11755e-007
Heightened Def Con from 1.11755e-007 +++++++++++to 1.11755e-007
Heightened Def Con from 1.11755e-007 +++++++++++to 1.11755e-007
Heightened Def Con from 1.11755e-007 +++++++++++to 1.11755e-007
Heightened Def Con from 1.11755e-007 +++++++++++to 1.11755e-007
Heightened Def Con from 1.11755e-007 +++++++++++to 1.11755e-007
Heightened Def Con from 1.11755e-007 +++++++++++to 1.11755e-007
Heightened Def Con from 1.11755e-007 +++++++++++to 1.11755e-007
Heightened Def Con from 1.11755e-007 +++++++++++to 1.11755e-007
Heightened Def Con from 1.11755e-007 +++++++++++to 1.11755e-007
Heightened Def Con from 1.11755e-007 +++++++++++to 1.11755e-007
Heightened Def Con from 1.11755e-007 +++++++++++to 1.11755e-007
Heightened Def Con from 1.11755e-007 +++++++++++to 1.11755e-007
Heightened Def Con from 1.11755e-007 +++++++++++to 1.11755e-007
Heightened Def Con from 1.11755e-007 +++++++++++to 1.11755e-007
Heightened Def Con from 1.11755e-007 +++++++++++to 1.11755e-007
Heightened Def Con from 1.11755e-007 +++++++++++to 1.11755e-007
Heightened Def Con from 1.11755e-007 +++++++++++to 1.11755e-007
Heightened Def Con from 1.11755e-007 +++++++++++to 1.11755e-007
Heightened Def Con from 1.11755e-007 +++++++++++to 1.11755e-007
Heightened Def Con from 1.11755e-007 +++++++++++to 1.11755e-007
Heightened Def Con from 1.11755e-007 +++++++++++to 1.11755e-007
Heightened Def Con from 1.11755e-007 +++++++++++to 1.11755e-007
Heightened Def Con from 1.11755e-007 +++++++++++to 1.11755e-007
Heightened Def Con from 1.11755e-007 +++++++++++to 1.11755e-007
Heightened Def Con from 1.11755e-007 +++++++++++to 1.11755e-007
Heightened Def Con from 1.11755e-007 +++++++++++to 1.11755e-007
Heightened Def Con from 1.11755e-007 +++++++++++to 1.11755e-007
Heightened Def Con from 1.11755e-007 +++++++++++to 1.11755e-007
Heightened Def Con from 1.11755e-007 +++++++++++to 1.11755e-007
Heightened Def Con from 1.11755e-007 +++++++++++to 1.11755e-007
Heightened Def Con from 1.11755e-007 +++++++++++to 1.11755e-007
Heightened Def Con from 1.11755e-007 +++++++++++to 1.11755e-007
Heightened Def Con from 1.11755e-007 +++++++++++to 1.11755e-007
Heightened Def Con from 1.11755e-007 +++++++++++to 1.11755e-007
Heightened Def Con from 1.11755e-007 +++++++++++to 1.11755e-007
Heightened Def Con from 1.11755e-007 +++++++++++to 1.11755e-007
Heightened Def Con from 1.11755e-007 +++++++++++to 1.11755e-007
Heightened Def Con from 1.11755e-007 +++++++++++to 1.11755e-007
Heightened Def Con from 1.11755e-007 +++++++++++to 1.11755e-007
Heightened Def Con from 1.11755e-007 +++++++++++to 1.11755e-007
Heightened Def Con from 1.11755e-007 +++++++++++to 1.11755e-007
Heightened Def Con from 1.11755e-007 +++++++++++to 1.11755e-007
Heightened Def Con from 1.11755e-007 +++++++++++to 1.11755e-007
Heightened Def Con from 1.11755e-007 +++++++++++to 1.11755e-007
Heightened Def Con from 1.11755e-007 +++++++++++to 1.11755e-007
Heightened Def Con from 1.11755e-007 +++++++++++to 1.11755e-007
Heightened Def Con from 1.11755e-007 +++++++++++to 1.11755e-007
Heightened Def Con from 1.11755e-007 +++++++++++to 1.11755e-007
Heightened Def Con from 1.11755e-007 +++++++++++to 1.11755e-007
Heightened Def Con from 1.11755e-007 +++++++++++to 1.11755e-007
Heightened Def Con from 1.11755e-007 +++++++++++to 1.11755e-007
Heightened Def Con from 1.11755e-007 +++++++++++to 1.11755e-007
Heightened Def Con from 1.11755e-007 +++++++++++to 1.11755e-007
Heightened Def Con from 1.11755e-007 +++++++++++to 1.11755e-007
Heightened Def Con from 1.11755e-007 +++++++++++to 1.11755e-007
Heightened Def Con from 1.11755e-007 +++++++++++to 1.11755e-007
[...]
Heightened Def Con from 1.57547e-005 +++++++++++++to 1.57547e-005
Heightened Def Con from 1.57547e-005 +++++++++++++to 1.57547e-005
Heightened Def Con from 1.57547e-005 +++++++++++++to 1.57547e-005
Heightened Def Con from 1.57547e-005 +++++++++++++to 1.57547e-005
Heightened Def Con from 1.57547e-005 +++++++++++++to 1.57547e-005
Heightened Def Con from 1.57547e-005 +++++++++++++to 1.57547e-005
Heightened Def Con from 1.57547e-005 +++++++++++++to 1.57547e-005
Heightened Def Con from 1.57547e-005 +++++++++++++to 1.57547e-005
Heightened Def Con from 1.57547e-005 +++++++++++++to 1.57547e-005
Heightened Def Con from 1.57547e-005 +++++++++++++to 1.57547e-005
Heightened Def Con from 1.57547e-005 +++++++++++++to 1.57547e-005
Heightened Def Con from 1.57547e-005 +++++++++++++to 1.57547e-005
Heightened Def Con from 1.57547e-005 +++++++++++++to 1.57547e-005
Heightened Def Con from 1.57547e-005 +++++++++++++to 1.57547e-005
Heightened Def Con from 1.57547e-005 +++++++++++++to 1.57547e-005
Heightened Def Con from 1.57547e-005 +++++++++++++to 1.57547e-005
Heightened Def Con from 1.57547e-005 +++++++++++++to 1.57547e-005
Heightened Def Con from 1.57547e-005 +++++++++++++to 1.57547e-005
Heightened Def Con from 1.57547e-005 +++++++++++++to 1.57547e-005
Heightened Def Con from 1.57547e-005 +++++++++++++to 1.57547e-005
Heightened Def Con from 1.57547e-005 +++++++++++++to 1.57547e-005
Heightened Def Con from 1.57547e-005 +++++++++++++to 1.57547e-005
Heightened Def Con from 1.57547e-005 +++++++++++++to 1.57547e-005
Heightened Def Con from 1.57547e-005 +++++++++++++to 1.57547e-005
Heightened Def Con from 1.57547e-005 +++++++++++++to 1.57547e-005
Heightened Def Con from 1.57547e-005 ++++++++++++++to 1.57547e-005
Heightened Def Con from 1.57547e-005 ++++++++++++++to 1.57547e-005
Heightened Def Con from 1.57547e-005 ++++++++++++++to 1.57547e-005
Heightened Def Con from 1.57547e-005 ++++++++++++++to 1.57547e-005
Heightened Def Con from 1.57547e-005 ++++++++++++++to 1.57547e-005
Heightened Def Con from 1.57547e-005 ++++++++++++++to 1.57547e-005
Heightened Def Con from 1.57547e-005 ++++++++++++++to 1.57547e-005
Heightened Def Con from 1.57547e-005 ++++++++++++++to 1.57547e-005
Heightened Def Con from 1.57547e-005 ++++++++++++++to 1.57547e-005
Heightened Def Con from 1.57547e-005 ++++++++++++++to 1.57547e-005
Heightened Def Con from 1.57547e-005 ++++++++++++++to 1.57547e-005
Heightened Def Con from 1.57547e-005 ++++++++++++++to 1.57547e-005
Heightened Def Con from 1.57547e-005 ++++++++++++++to 1.57547e-005
Heightened Def Con from 1.57547e-005 ++++++++++++++to 1.57547e-005
Heightened Def Con from 1.57547e-005 ++++++++++++++to 1.57547e-005
Heightened Def Con from 1.57547e-005 ++++++++++++++to 1.57547e-005
Heightened Def Con from 1.57547e-005 ++++++++++++++to 1.57547e-005
Heightened Def Con from 1.57547e-005 ++++++++++++++to 1.57547e-005
Heightened Def Con from 1.57547e-005 ++++++++++++++to 1.57547e-005
Heightened Def Con from 1.57547e-005 ++++++++++++++to 1.57547e-005
Heightened Def Con from 1.57547e-005 ++++++++++++++to 1.57547e-005
Heightened Def Con from 1.57547e-005 ++++++++++++++to 1.57547e-005
Heightened Def Con from 1.57547e-005 ++++++++++++++to 1.57547e-005
Heightened Def Con from 1.57547e-005 ++++++++++++++to 1.57547e-005
Heightened Def Con from 1.57547e-005 ++++++++++++++to 1.57547e-005
Heightened Def Con from 1.57547e-005 ++++++++++++++to 1.57547e-005
Heightened Def Con from 1.57547e-005 ++++++++++++++to 1.57547e-005
Heightened Def Con from 1.57547e-005 ++++++++++++++to 1.57547e-005
Heightened Def Con from 1.57547e-005 ++++++++++++++to 1.57547e-005
Heightened Def Con from 1.57547e-005 ++++++++++++++to 1.57547e-005
Heightened Def Con from 1.57547e-005 ++++++++++++++to 1.57547e-005
Heightened Def Con from 1.57547e-005 ++++++++++++++to 1.57547e-005
Heightened Def Con from 1.57547e-005 ++++++++++++++to 1.57547e-005
Heightened Def Con from 1.57547e-005 ++++++++++++++to 1.57547e-005
Heightened Def Con from 1.57547e-005 ++++++++++++++to 1.57547e-005
Heightened Def Con from 1.57547e-005 ++++++++++++++to 1.57547e-005
Heightened Def Con from 1.57547e-005 ++++++++++++++to 1.57547e-005
Heightened Def Con from 1.57547e-005 ++++++++++++++to 1.57547e-005
Heightened Def Con from 1.57547e-005 ++++++++++++++to 1.57547e-005
Heightened Def Con from 1.57547e-005 ++++++++++++++to 1.57547e-005
Heightened Def Con from 1.57547e-005 ++++++++++++++to 1.57547e-005
Heightened Def Con from 1.57547e-005 ++++++++++++++to 1.57547e-005
Heightened Def Con from 1.57547e-005 ++++++++++++++to 1.57547e-005
Heightened Def Con from 1.57547e-005 ++++++++++++++to 1.57547e-005
Heightened Def Con from 1.57547e-005 ++++++++++++++to 1.57547e-005
Heightened Def Con from 1.57547e-005 ++++++++++++++to 1.57547e-005
Heightened Def Con from 1.57547e-005 ++++++++++++++to 1.57547e-005
Heightened Def Con from 1.57547e-005 ++++++++++++++to 1.57547e-005
Heightened Def Con from 1.57547e-005 ++++++++++++++to 1.57547e-005
Heightened Def Con from 1.57547e-005 ++++++++++++++to 1.57547e-005
Heightened Def Con from 1.57547e-005 ++++++++++++++to 1.57547e-005
Heightened Def Con from 1.57547e-005 ++++++++++++++to 1.57547e-005
Heightened Def Con from 1.57547e-005 ++++++++++++++to 1.57547e-005
Heightened Def Con from 1.57547e-005 ++++++++++++++to 1.57547e-005
Heightened Def Con from 1.57547e-005 ++++++++++++++to 1.57547e-005
Heightened Def Con from 1.57547e-005 ++++++++++++++to 1.57547e-005
Heightened Def Con from 1.57547e-005 ++++++++++++++to 1.57547e-005
Heightened Def Con from 1.57547e-005 ++++++++++++++to 1.57547e-005
Heightened Def Con from 1.57547e-005 ++++++++++++++to 1.57547e-005
Heightened Def Con from 1.57547e-005 ++++++++++++++to 1.57547e-005
Heightened Def Con from 1.57547e-005 ++++++++++++++to 1.57547e-005
Heightened Def Con from 1.57547e-005 ++++++++++++++to 1.57547e-005
Heightened Def Con from 1.57547e-005 ++++++++++++++to 1.57547e-005
Heightened Def Con from 1.57547e-005 ++++++++++++++to 1.57547e-005
Heightened Def Con from 1.57547e-005 ++++++++++++++to 1.57547e-005
Heightened Def Con from 1.57547e-005 ++++++++++++++to 1.57547e-005
Heightened Def Con from 1.57547e-005 ++++++++++++++to 1.57547e-005
Heightened Def Con from 1.57547e-005 ++++++++++++++to 1.57547e-005
Heightened Def Con from 1.57547e-005 ++++++++++++++to 1.57547e-005
Heightened Def Con from 1.57547e-005 ++++++++++++++to 1.57547e-005
Heightened Def Con from 1.57547e-005 ++++++++++++++to 1.57547e-005
Heightened Def Con from 1.57547e-005 ++++++++++++++to 1.57547e-005
Heightened Def Con from 1.57547e-005 ++++++++++++++to 1.57547e-005
Heightened Def Con from 1.57547e-005 ++++++++++++++to 1.57547e-005
Heightened Def Con from 1.57547e-005 ++++++++++++++to 1.57547e-005
Heightened Def Con from 1.57547e-005 ++++++++++++++to 1.57547e-005
Heightened Def Con from 1.57547e-005 ++++++++++++++to 1.57547e-005
Heightened Def Con from 1.57547e-005 ++++++++++++++to 1.57547e-005
Heightened Def Con from 1.57547e-005 ++++++++++++++to 1.57547e-005
Heightened Def Con from 1.57547e-005 ++++++++++++++to 1.57547e-005
Heightened Def Con from 1.57547e-005 ++++++++++++++to 1.57547e-005
Heightened Def Con from 1.57547e-005 ++++++++++++++to 1.57547e-005
Heightened Def Con from 1.57547e-005 ++++++++++++++to 1.57547e-005
Heightened Def Con from 1.57547e-005 ++++++++++++++to 1.57547e-005
Heightened Def Con from 1.57547e-005 ++++++++++++++to 1.57547e-005
Heightened Def Con from 1.57547e-005 ++++++++++++++to 1.57547e-005
Heightened Def Con from 1.57547e-005 ++++++++++++++to 1.57547e-005
Heightened Def Con from 1.57547e-005 ++++++++++++++to 1.57547e-005
Heightened Def Con from 1.57547e-005 ++++++++++++++to 1.57547e-005
Heightened Def Con from 1.57547e-005 ++++++++++++++to 1.57547e-005
Heightened Def Con from 1.57547e-005 ++++++++++++++to 1.57547e-005
Heightened Def Con from 1.57547e-005 ++++++++++++++to 1.57547e-005
Heightened Def Con from 1.57547e-005 ++++++++++++++to 1.57547e-005
Heightened Def Con from 1.57547e-005 ++++++++++++++to 1.57547e-005
Heightened Def Con from 1.57547e-005 ++++++++++++++to 1.57547e-005
Heightened Def Con from 1.57547e-005 ++++++++++++++to 1.57547e-005
Heightened Def Con from 1.57547e-005 ++++++++++++++to 1.57547e-005
Heightened Def Con from 1.57547e-005 ++++++++++++++to 1.57547e-005
Heightened Def Con from 1.57547e-005 ++++++++++++++to 1.57547e-005
Heightened Def Con from 1.57547e-005 ++++++++++++++to 1.57547e-005
Heightened Def Con from 1.57547e-005 ++++++++++++++to 1.57547e-005
Heightened Def Con from 1.57547e-005 ++++++++++++++to 1.57547e-005
Heightened Def Con from 1.57547e-005 ++++++++++++++to 1.57547e-005
Heightened Def Con from 1.57547e-005 ++++++++++++++to 1.57547e-005
Heightened Def Con from 1.57547e-005 ++++++++++++++to 1.57547e-005
Heightened Def Con from 1.57547e-005 ++++++++++++++to 1.57547e-005
Heightened Def Con from 1.57547e-005 ++++++++++++++to 1.57547e-005
Heightened Def Con from 1.57547e-005 ++++++++++++++to 1.57547e-005
Heightened Def Con from 1.57547e-005 ++++++++++++++to 1.57547e-005
Heightened Def Con from 1.57547e-005 ++++++++++++++to 1.57547e-005
Heightened Def Con from 1.57547e-005 ++++++++++++++to 1.57547e-005
Heightened Def Con from 1.57547e-005 ++++++++++++++to 1.57547e-005
Heightened Def Con from 1.57547e-005 ++++++++++++++to 1.57547e-005
Heightened Def Con from 1.57547e-005 ++++++++++++++to 1.57547e-005
Heightened Def Con from 1.57547e-005 ++++++++++++++to 1.57547e-005
Heightened Def Con from 1.57547e-005 ++++++++++++++to 1.57547e-005
Heightened Def Con from 1.57547e-005 ++++++++++++++to 1.57547e-005
Heightened Def Con from 1.57547e-005 ++++++++++++++to 1.57547e-005
Heightened Def Con from 1.57547e-005 ++++++++++++++to 1.57547e-005
Heightened Def Con from 1.57547e-005 ++++++++++++++to 1.57547e-005
Heightened Def Con from 1.57547e-005 ++++++++++++++to 1.57547e-005
Heightened Def Con from 1.57547e-005 ++++++++++++++to 1.57547e-005
Heightened Def Con from 1.57547e-005 ++++++++++++++to 1.57547e-005
Heightened Def Con from 1.57547e-005 ++++++++++++++to 1.57547e-005
Heightened Def Con from 1.57547e-005 ++++++++++++++to 1.57547e-005
Heightened Def Con from 1.57547e-005 ++++++++++++++to 1.57547e-005
Heightened Def Con from 1.57547e-005 ++++++++++++++to 1.57547e-005
Heightened Def Con from 1.57547e-005 ++++++++++++++to 1.57547e-005
Heightened Def Con from 1.57547e-005 ++++++++++++++to 1.57547e-005
Heightened Def Con from 1.57547e-005 ++++++++++++++to 1.57547e-005
Heightened Def Con from 1.57547e-005 ++++++++++++++to 1.57547e-005
Heightened Def Con from 1.57547e-005 ++++++++++++++to 1.57547e-005
Heightened Def Con from 1.57547e-005 ++++++++++++++to 1.57547e-005
Heightened Def Con from 1.57547e-005 ++++++++++++++to 1.57547e-005
Heightened Def Con from 1.57547e-005 ++++++++++++++to 1.57547e-005
Heightened Def Con from 1.57547e-005 ++++++++++++++to 1.57547e-005
Heightened Def Con from 1.57547e-005 ++++++++++++++to 1.57547e-005
Heightened Def Con from 1.57547e-005 ++++++++++++++to 1.57547e-005
Heightened Def Con from 1.57547e-005 ++++++++++++++to 1.57547e-005
Heightened Def Con from 1.57547e-005 ++++++++++++++to 1.57547e-005
Heightened Def Con from 1.57547e-005 ++++++++++++++to 1.57547e-005
Heightened Def Con from 1.57547e-005 ++++++++++++++to 1.57547e-005
Heightened Def Con from 1.57547e-005 ++++++++++++++to 1.57547e-005
Heightened Def Con from 1.57547e-005 ++++++++++++++to 1.57547e-005
Heightened Def Con from 1.57547e-005 ++++++++++++++to 1.57547e-005
Heightened Def Con from 1.57547e-005 ++++++++++++++to 1.57547e-005
Heightened Def Con from 1.57547e-005 ++++++++++++++to 1.57547e-005
Heightened Def Con from 1.57547e-005 ++++++++++++++to 1.57547e-005
Heightened Def Con from 1.57547e-005 ++++++++++++++to 1.57547e-005
Heightened Def Con from 1.57547e-005 ++++++++++++++to 1.57547e-005
Heightened Def Con from 1.57547e-005 ++++++++++++++to 1.57547e-005
Heightened Def Con from 1.57547e-005 ++++++++++++++to 1.57547e-005
Heightened Def Con from 1.57547e-005 ++++++++++++++to 1.57547e-005
Heightened Def Con from 1.57547e-005 ++++++++++++++to 1.57547e-005
Heightened Def Con from 1.57547e-005 ++++++++++++++to 1.57547e-005
Heightened Def Con from 1.57547e-005 ++++++++++++++to 1.57547e-005
Heightened Def Con from 1.57547e-005 ++++++++++++++to 1.57547e-005
Heightened Def Con from 1.57547e-005 ++++++++++++++to 1.57547e-005
Heightened Def Con from 1.57547e-005 ++++++++++++++to 1.57547e-005
Heightened Def Con from 1.57547e-005 ++++++++++++++to 1.57547e-005
Heightened Def Con from 1.57547e-005 ++++++++++++++to 1.57547e-005
Heightened Def Con from 1.57547e-005 ++++++++++++++to 1.57547e-005
Heightened Def Con from 1.57547e-005 ++++++++++++++to 1.57547e-005
Heightened Def Con from 1.57547e-005 ++++++++++++++to 1.57547e-005
Heightened Def Con from 1.57547e-005 ++++++++++++++to 1.57547e-005
Heightened Def Con from 1.57547e-005 ++++++++++++++to 1.57547e-005
Heightened Def Con from 1.57547e-005 ++++++++++++++to 1.57547e-005
Heightened Def Con from 1.57547e-005 ++++++++++++++to 1.57547e-005
Heightened Def Con from 1.57547e-005 ++++++++++++++to 1.57547e-005
Heightened Def Con from 1.57547e-005 ++++++++++++++to 1.57547e-005
Heightened Def Con from 1.57547e-005 ++++++++++++++to 1.57547e-005
Heightened Def Con from 1.57547e-005 ++++++++++++++to 1.57547e-005
Heightened Def Con from 1.57547e-005 ++++++++++++++to 1.57547e-005
Heightened Def Con from 1.57547e-005 ++++++++++++++to 1.57547e-005
Heightened Def Con from 1.57547e-005 ++++++++++++++to 1.57547e-005
Heightened Def Con from 1.57547e-005 ++++++++++++++to 1.57547e-005
Heightened Def Con from 1.57547e-005 ++++++++++++++to 1.57547e-005
Heightened Def Con from 1.57547e-005 ++++++++++++++to 1.57547e-005
Heightened Def Con from 1.57547e-005 ++++++++++++++to 1.57547e-005
Heightened Def Con from 1.57547e-005 ++++++++++++++to 1.57547e-005
Heightened Def Con from 1.57547e-005 ++++++++++++++to 1.57547e-005
Heightened Def Con from 1.57547e-005 ++++++++++++++to 1.57547e-005
Heightened Def Con from 1.57547e-005 ++++++++++++++to 1.57547e-005
Heightened Def Con from 1.57547e-005 ++++++++++++++to 1.57547e-005
Heightened Def Con from 1.57547e-005 ++++++++++++++to 1.57547e-005
Heightened Def Con from 1.57547e-005 ++++++++++++++to 1.57547e-005
Heightened Def Con from 1.57547e-005 ++++++++++++++to 1.57547e-005
Heightened Def Con from 1.57547e-005 ++++++++++++++to 1.57547e-005
Heightened Def Con from 1.57547e-005 ++++++++++++++to 1.57547e-005
Heightened Def Con from 1.57547e-005 ++++++++++++++to 1.57547e-005
Heightened Def Con from 1.57547e-005 ++++++++++++++to 1.57547e-005
Heightened Def Con from 1.57547e-005 ++++++++++++++to 1.57547e-005
Heightened Def Con from 1.57547e-005 ++++++++++++++to 1.57547e-005
Heightened Def Con from 1.57547e-005 ++++++++++++++to 1.57547e-005
Heightened Def Con from 1.57547e-005 ++++++++++++++to 1.57547e-005
Heightened Def Con from 1.57547e-005 ++++++++++++++to 1.57547e-005
Heightened Def Con from 1.57547e-005 ++++++++++++++to 1.57547e-005
Heightened Def Con from 1.57547e-005 ++++++++++++++to 1.57547e-005
Heightened Def Con from 1.57547e-005 ++++++++++++++to 1.57547e-005
Heightened Def Con from 1.57547e-005 ++++++++++++++to 1.57547e-005
Heightened Def Con from 1.57547e-005 ++++++++++++++to 1.57547e-005
Heightened Def Con from 1.57547e-005 ++++++++++++++to 1.57547e-005
Heightened Def Con from 1.57547e-005 ++++++++++++++to 1.57547e-005
Heightened Def Con from 1.57547e-005 ++++++++++++++to 1.57547e-005
Heightened Def Con from 1.57547e-005 ++++++++++++++to 1.57547e-005
Heightened Def Con from 1.57547e-005 ++++++++++++++to 1.57547e-005
Heightened Def Con from 1.57547e-005 ++++++++++++++to 1.57547e-005
Heightened Def Con from 1.57547e-005 ++++++++++++++to 1.57547e-005
Heightened Def Con from 1.57547e-005 ++++++++++++++to 1.57547e-005
Heightened Def Con from 1.57547e-005 ++++++++++++++to 1.57547e-005
Heightened Def Con from 1.57547e-005 ++++++++++++++to 1.57547e-005
Heightened Def Con from 1.57547e-005 ++++++++++++++to 1.57547e-005
Heightened Def Con from 1.57547e-005 ++++++++++++++to 1.57547e-005
Heightened Def Con from 1.57547e-005 ++++++++++++++to 1.57547e-005
Heightened Def Con from 1.57547e-005 ++++++++++++++to 1.57547e-005
Heightened Def Con from 1.57547e-005 ++++++++++++++to 1.57547e-005
Heightened Def Con from 1.57547e-005 ++++++++++++++to 1.57547e-005
Heightened Def Con from 1.57547e-005 ++++++++++++++to 1.57547e-005
Heightened Def Con from 1.57547e-005 ++++++++++++++to 1.57547e-005
Heightened Def Con from 1.57547e-005 ++++++++++++++to 1.57547e-005
Heightened Def Con from 1.57547e-005 ++++++++++++++to 1.57547e-005
Heightened Def Con from 1.57547e-005 ++++++++++++++to 1.57547e-005
Heightened Def Con from 1.57547e-005 ++++++++++++++to 1.57547e-005
Heightened Def Con from 1.57547e-005 ++++++++++++++to 1.57547e-005
Heightened Def Con from 1.57547e-005 ++++++++++++++to 1.57547e-005
Heightened Def Con from 1.57547e-005 ++++++++++++++to 1.57547e-005
Heightened Def Con from 1.57547e-005 ++++++++++++++to 1.57547e-005
Heightened Def Con from 1.57547e-005 ++++++++++++++to 1.57547e-005
Heightened Def Con from 1.57547e-005 ++++++++++++++to 1.57547e-005
Heightened Def Con from 1.57547e-005 ++++++++++++++to 1.57547e-005
Heightened Def Con from 1.57547e-005 ++++++++++++++to 1.57547e-005
Heightened Def Con from 1.57547e-005 ++++++++++++++to 1.57547e-005
Heightened Def Con from 1.57547e-005 ++++++++++++++to 1.57547e-005
Heightened Def Con from 1.57547e-005 ++++++++++++++to 1.57547e-005
Heightened Def Con from 1.57547e-005 ++++++++++++++to 1.57547e-005
Heightened Def Con from 1.57547e-005 ++++++++++++++to 1.57547e-005
Heightened Def Con from 1.57547e-005 ++++++++++++++to 1.57547e-005
Heightened Def Con from 1.57547e-005 ++++++++++++++to 1.57547e-005
Heightened Def Con from 1.57547e-005 ++++++++++++++to 1.57547e-005
Heightened Def Con from 1.57547e-005 ++++++++++++++to 1.57547e-005
Heightened Def Con from 1.57547e-005 ++++++++++++++to 1.57547e-005
Heightened Def Con from 1.57547e-005 ++++++++++++++to 1.57547e-005
Heightened Def Con from 1.57547e-005 ++++++++++++++to 1.57547e-005
Heightened Def Con from 1.57547e-005 ++++++++++++++to 1.57547e-005
Heightened Def Con from 1.57547e-005 ++++++++++++++to 1.57547e-005
Heightened Def Con from 1.57547e-005 ++++++++++++++to 1.57547e-005
Heightened Def Con from 1.57547e-005 ++++++++++++++to 1.57547e-005
Heightened Def Con from 1.57547e-005 ++++++++++++++to 1.57547e-005
Heightened Def Con from 1.57547e-005 ++++++++++++++to 1.57547e-005
Heightened Def Con from 1.57547e-005 ++++++++++++++to 1.57547e-005
Heightened Def Con from 1.57547e-005 ++++++++++++++to 1.57547e-005
Heightened Def Con from 1.57547e-005 ++++++++++++++to 1.57547e-005
Heightened Def Con from 1.57547e-005 ++++++++++++++to 1.57547e-005
Heightened Def Con from 1.57547e-005 ++++++++++++++to 1.57547e-005
Heightened Def Con from 1.57547e-005 ++++++++++++++to 1.57547e-005
Heightened Def Con from 1.57547e-005 ++++++++++++++to 1.57547e-005
Heightened Def Con from 1.57547e-005 ++++++++++++++to 1.57547e-005
Heightened Def Con from 1.57547e-005 ++++++++++++++to 1.57547e-005
Heightened Def Con from 1.57547e-005 ++++++++++++++to 1.57547e-005
Heightened Def Con from 1.57547e-005 ++++++++++++++to 1.57547e-005
Heightened Def Con from 1.57547e-005 ++++++++++++++to 1.57547e-005
Heightened Def Con from 1.57547e-005 ++++++++++++++to 1.57547e-005
Heightened Def Con from 1.57547e-005 ++++++++++++++to 1.57547e-005
Heightened Def Con from 1.57547e-005 ++++++++++++++to 1.57547e-005
Heightened Def Con from 1.57547e-005 ++++++++++++++to 1.57547e-005
Heightened Def Con from 1.57547e-005 ++++++++++++++to 1.57547e-005
Heightened Def Con from 1.57547e-005 +++++to 1.57547e-005

Date: Sat May 23 16:09:20 2020
Total elapsed time: 1348.953 seconds.

tnom = 27
temp = 27
method = modified trap
totiter = 7703924
traniter = 7701784
tranpoints = 706568
accept = 70700
rejected = 698742
matrix size = 254
fillins = 4218
solver = Normal
Thread vector: 81.0/53.9[5] 20.6/15.2[5] 19.5/9.9[5] 5.4/28.4[1]  2592/500
Matrix Compiler1: 994.69 KB object code size  316.9/368.7/[93.3]
Matrix Compiler2: 96.35 KB object code size  36.7/56.0/[13.2]

