Circuit: * C:\Users\ohvic\Documents\ITBA\ASSD_2020_G4\TP1\SPICE FINAL\muestreo_natural.asc

WARNING: Node NC_01 is floating.

WARNING: Less than two connections to node NC_02.  This node is used by S:LLAVE:1.
WARNING: Less than two connections to node NC_01.  This node is used by S:LLAVE:1.
Early termination of direct N-R iteration.
Direct Newton iteration failed to find .op point.  (Use ".option noopiter" to skip.)
Starting Gmin stepping
Gmin = 10
vernier = 0.5
vernier = 0.25
vernier = 0.125
Gmin = 5.49741
vernier = 0.0625
vernier = 0.03125
vernier = 0.015625
vernier = 0.0078125
Gmin = 5.51716
vernier = 0.00390625
vernier = 0.00195313
vernier = 0.000976563
vernier = 0.000488281
Gmin = 5.50104
Gmin = 0
Gmin stepping failed

Starting source stepping with srcstepmethod=0
Source Step = 3.0303%
Source Step = 33.3333%
Source Step = 63.6364%
Source Step = 93.9394%
Source stepping succeeded in finding the operating point.

Ignoring empty pin current: Ix(u1:3)
Ignoring empty pin current: Ix(u1:8)
Ignoring empty pin current: Ix(u1:7)
Ignoring empty pin current: Ix(u1:4)
Ignoring empty pin current: Ix(u1:6)
Ignoring empty pin current: Ix(u1:5)
Ignoring empty pin current: Ix(u1:1)
Ignoring empty pin current: Ix(llave:ctrl)
Ignoring empty pin current: Ix(x1:ctrl)
Ignoring empty pin current: Ix(x1:in)
Ignoring empty pin current: Ix(x1:out)
Ignoring empty pin current: Ix(x1:vcc)
Ignoring empty pin current: Ix(x1:vee)
Ignoring empty pin current: Ix(u1:3)
Ignoring empty pin current: Ix(u1:8)
Ignoring empty pin current: Ix(u1:7)
Ignoring empty pin current: Ix(u1:4)
Ignoring empty pin current: Ix(u1:6)
Ignoring empty pin current: Ix(u1:5)
Ignoring empty pin current: Ix(u1:1)
Ignoring empty pin current: Ix(llave:ctrl)
Ignoring empty pin current: Ix(x1:ctrl)
Ignoring empty pin current: Ix(x1:in)
Ignoring empty pin current: Ix(x1:out)
Ignoring empty pin current: Ix(x1:vcc)
Ignoring empty pin current: Ix(x1:vee)
Heightened Def Con from 9.52185e-005 to 9.52225e-005
Heightened Def Con from 0.000148577 to 0.000148578
Heightened Def Con from 0.000161917 to 0.000161918
Heightened Def Con from 0.000175257 to 0.000175257
Heightened Def Con from 0.000201936 to 0.000201936
Heightened Def Con from 0.000215275 to 0.000215276
Heightened Def Con from 0.000241955 to 0.000241955
Heightened Def Con from 0.000255294 to 0.000255295
Heightened Def Con from 0.00056212 to 0.000562124
Heightened Def Con from 0.00057546 to 0.000575464
Heightened Def Con from 0.000588799 to 0.000588803
Heightened Def Con from 0.000602138 to 0.000602142
Heightened Def Con from 0.000642158 to 0.000642159
Heightened Def Con from 0.000655498 to 0.000655498
Heightened Def Con from 0.000668837 to 0.000668838
Heightened Def Con from 0.000682177 to 0.000682177
Heightened Def Con from 0.000708856 to 0.000708856
Heightened Def Con from 0.000722195 to 0.000722196
Heightened Def Con from 0.000735535 to 0.000735535
Heightened Def Con from 0.000762214 to 0.000762215
Heightened Def Con from 0.00106904 to 0.00106904
Heightened Def Con from 0.00108238 to 0.00108238
Heightened Def Con from 0.00113574 to 0.00113574
Heightened Def Con from 0.00116242 to 0.00116242
Heightened Def Con from 0.00117576 to 0.00117576
Heightened Def Con from 0.0011891 to 0.0011891
Heightened Def Con from 0.00120244 to 0.00120244
Heightened Def Con from 0.00122911 to 0.00122911
Heightened Def Con from 0.00124245 to 0.00124246
Heightened Def Con from 0.0015893 to 0.0015893
Heightened Def Con from 0.00161598 to 0.00161598
Heightened Def Con from 0.00162932 to 0.00162932
Heightened Def Con from 0.001656 to 0.001656
Heightened Def Con from 0.00166934 to 0.00166934
Heightened Def Con from 0.00168268 to 0.00168268
Heightened Def Con from 0.00170936 to 0.00170936
Heightened Def Con from 0.0017227 to 0.0017227
Heightened Def Con from 0.00173603 to 0.00173604
Heightened Def Con from 0.00174937 to 0.00174938
Heightened Def Con from 0.00176271 to 0.00176271

Date: Sat May 23 16:09:47 2020
Total elapsed time: 17.047 seconds.

tnom = 27
temp = 27
method = modified trap
totiter = 102231
traniter = 100532
tranpoints = 36705
accept = 28677
rejected = 8068
matrix size = 240
fillins = 3563
solver = Normal
Thread vector: 34.1/23.3[4] 17.9/12.9[4] 10.4/8.8[3] 4.6/9.3[1]  2592/500
Matrix Compiler1: 788.67 KB object code size  329.2/164.0/[69.9]
Matrix Compiler2: 82.88 KB object code size  25.3/27.7/[9.5]

